@<TRIPOS>MOLECULE
*****
 33 37 0 0 0
SMALL
GASTEIGER

@<TRIPOS>ATOM
      1 C         141.7494  141.0187  165.9640 C.ar    1  UNL1        0.1531
      2 C         141.7352  141.5445  164.5594 C.ar    1  UNL1        0.0531
      3 C         140.9484  142.7781  164.2282 C.ar    1  UNL1        0.0576
      4 C         140.1760  143.4856  165.3018 C.ar    1  UNL1        0.0164
      5 C         140.1902  142.9598  166.7065 C.ar    1  UNL1        0.0189
      6 C         140.9769  141.7263  167.0377 C.ar    1  UNL1        0.0825
      7 N         140.9342  143.3039  162.8235 N.am    1  UNL1       -0.2494
      8 C         139.9206  142.9731  161.7684 C.3     1  UNL1        0.1283
      9 C         140.2910  143.7177  160.5200 C.ar    1  UNL1        0.0411
     10 C         139.8935  143.9734  159.0965 C.ar    1  UNL1        0.0994
     11 N         140.8904  144.9224  158.5002 N.ar    1  UNL1       -0.2283
     12 N         141.9040  145.2532  159.5552 N.ar    1  UNL1       -0.1607
     13 C         141.5336  144.5087  160.8036 C.ar    1  UNL1        0.1540
     14 C         141.9311  144.2530  162.2272 C.2     1  UNL1        0.2722
     15 O         143.1173  144.8427  162.9309 O.2     1  UNL1       -0.2679
     16 C         140.8762  145.4483  157.0955 C.ar    1  UNL1        0.0829
     17 C         139.8880  146.5053  156.7003 C.ar    1  UNL1        0.0200
     18 C         139.8739  147.0312  155.2955 C.ar    1  UNL1        0.0129
     19 C         140.8479  146.5000  154.2860 C.ar    1  UNL1        0.0578
     20 CL        140.8337  147.0259  152.8812 Cl      1  UNL1       -0.0822
     21 C         141.8360  145.4430  154.6811 C.ar    1  UNL1        0.0129
     22 C         141.8502  144.9171  156.0859 C.ar    1  UNL1        0.0200
     23 N         140.9911  141.2004  168.4424 N.pl3   1  UNL1       -0.3004
     24 C         139.9443  140.3266  169.0673 C.3     1  UNL1        0.1228
     25 C         140.3608  140.0421  170.4799 C.3     1  UNL1        0.1585
     26 O         139.6057  139.2064  171.4705 O.3     1  UNL1       -0.3802
     27 C         141.6652  140.7402  170.7280 C.3     1  UNL1        0.1585
     28 O         142.4433  140.7250  172.0103 O.3     1  UNL1       -0.3802
     29 C         142.0547  141.4560  169.4688 C.3     1  UNL1        0.1228
     30 H         140.0914  139.1821  172.3098 H       1  UNL1        0.2105
     31 H         141.9728  140.1889  172.6677 H       1  UNL1        0.2105
     32 C         142.3383  138.5321  165.4948 C.3     1  UNL1        0.2525
     33 O         142.5361  139.7852  166.2952 O.3     1  UNL1       -0.4701
@<TRIPOS>BOND
     1    32    33    1
     2    33     1    1
     3     1     2   ar
     4     2     3   ar
     5     3     7    1
     6     7     8    1
     7     8     9    1
     8     9    10   ar
     9    10    11   ar
    10    11    16    1
    11    16    17   ar
    12    17    18   ar
    13    18    19   ar
    14    19    20    1
    15    19    21   ar
    16    21    22   ar
    17    11    12   ar
    18    12    13   ar
    19    13    14    1
    20    14    15    2
    21     3     4   ar
    22     4     5   ar
    23     5     6   ar
    24     6    23    1
    25    23    24    1
    26    24    25    1
    27    25    26    1
    28    25    27    1
    29    27    28    1
    30    27    29    1
    31     6     1   ar
    32    29    23    1
    33    14     7   am
    34    13     9   ar
    35    22    16   ar
    36    26    30    1
    37    28    31    1
@<TRIPOS>MOLECULE
*****
 33 37 0 0 0
SMALL
GASTEIGER

@<TRIPOS>ATOM
      1 C         140.5660  141.4241  166.1828 C.ar    1  UNL1        0.1531
      2 C         140.3540  142.0782  164.8498 C.ar    1  UNL1        0.0531
      3 C         141.4873  142.7949  164.1773 C.ar    1  UNL1        0.0576
      4 C         142.8325  142.8573  164.8380 C.ar    1  UNL1        0.0164
      5 C         143.0446  142.2031  166.1711 C.ar    1  UNL1        0.0189
      6 C         141.9113  141.4865  166.8435 C.ar    1  UNL1        0.0825
      7 N         141.2754  143.4490  162.8443 N.am    1  UNL1       -0.2494
      8 C         142.0618  143.1808  161.5954 C.3     1  UNL1        0.1283
      9 C         141.5122  144.0523  160.5053 C.ar    1  UNL1        0.0411
     10 C         141.6586  144.4251  159.0598 C.ar    1  UNL1        0.0994
     11 N         140.6230  145.4624  158.7415 N.ar    1  UNL1       -0.2283
     12 N         139.8365  145.7308  159.9903 N.ar    1  UNL1       -0.1607
     13 C         140.3861  144.8592  161.0804 C.ar    1  UNL1        0.1540
     14 C         140.2397  144.4864  162.5259 C.2     1  UNL1        0.2722
     15 O         139.2342  145.0517  163.4848 O.2     1  UNL1       -0.2679
     16 C         140.4110  146.1166  157.4084 C.ar    1  UNL1        0.0829
     17 C         139.3063  147.1156  157.2304 C.ar    1  UNL1        0.0200
     18 C         139.0943  147.7698  155.8973 C.ar    1  UNL1        0.0129
     19 C         139.9871  147.4250  154.7422 C.ar    1  UNL1        0.0578
     20 CL        139.7751  148.0792  153.4091 Cl      1  UNL1       -0.0822
     21 C         141.0918  146.4261  154.9202 C.ar    1  UNL1        0.0129
     22 C         141.3037  145.7719  156.2533 C.ar    1  UNL1        0.0200
     23 N         142.1232  140.8323  168.1766 N.pl3   1  UNL1       -0.3004
     24 C         142.5367  139.4084  168.4041 C.3     1  UNL1        0.1228
     25 C         142.6279  139.1832  169.8843 C.3     1  UNL1        0.1585
     26 O         143.0093  137.8989  170.5589 O.3     1  UNL1       -0.3802
     27 C         142.2708  140.4678  170.5715 C.3     1  UNL1        0.1585
     28 O         142.2324  140.6936  172.0539 O.3     1  UNL1       -0.3802
     29 C         141.9589  141.4870  169.5161 C.3     1  UNL1        0.1228
     30 H         142.9913  138.0212  171.5210 H       1  UNL1        0.2105
     31 H         142.4762  139.8742  172.5122 H       1  UNL1        0.2105
     32 C         138.9634  139.3843  166.3272 C.3     1  UNL1        0.2525
     33 O         139.4327  140.7074  166.8553 O.3     1  UNL1       -0.4701
@<TRIPOS>BOND
     1    32    33    1
     2    33     1    1
     3     1     2   ar
     4     2     3   ar
     5     3     7    1
     6     7     8    1
     7     8     9    1
     8     9    10   ar
     9    10    11   ar
    10    11    16    1
    11    16    17   ar
    12    17    18   ar
    13    18    19   ar
    14    19    20    1
    15    19    21   ar
    16    21    22   ar
    17    11    12   ar
    18    12    13   ar
    19    13    14    1
    20    14    15    2
    21     3     4   ar
    22     4     5   ar
    23     5     6   ar
    24     6    23    1
    25    23    24    1
    26    24    25    1
    27    25    26    1
    28    25    27    1
    29    27    28    1
    30    27    29    1
    31     6     1   ar
    32    29    23    1
    33    14     7   am
    34    13     9   ar
    35    22    16   ar
    36    26    30    1
    37    28    31    1
@<TRIPOS>MOLECULE
*****
 33 37 0 0 0
SMALL
GASTEIGER

@<TRIPOS>ATOM
      1 C         140.4690  140.8096  165.6141 C.ar    1  UNL1        0.1531
      2 C         141.0020  140.8023  164.2121 C.ar    1  UNL1        0.0531
      3 C         142.4500  141.1008  163.9585 C.ar    1  UNL1        0.0576
      4 C         143.3650  141.4064  165.1072 C.ar    1  UNL1        0.0164
      5 C         142.8320  141.4137  166.5093 C.ar    1  UNL1        0.0189
      6 C         141.3841  141.1152  166.7628 C.ar    1  UNL1        0.0825
      7 N         142.9830  141.0935  162.5565 N.am    1  UNL1       -0.2494
      8 C         143.4589  142.2906  161.7880 C.3     1  UNL1        0.1283
      9 C         143.9037  141.8248  160.4332 C.ar    1  UNL1        0.0411
     10 C         144.4727  142.2769  159.1210 C.ar    1  UNL1        0.0994
     11 N         144.6233  141.0713  158.2413 N.ar    1  UNL1       -0.2283
     12 N         144.1474  139.8742  159.0098 N.ar    1  UNL1       -0.1607
     13 C         143.7026  140.3400  160.3645 C.ar    1  UNL1        0.1540
     14 C         143.1336  139.8880  161.6767 C.2     1  UNL1        0.2722
     15 O         142.7776  138.4780  162.0445 O.2     1  UNL1       -0.2679
     16 C         145.1563  141.0641  156.8392 C.ar    1  UNL1        0.0829
     17 C         146.2974  141.9632  156.4659 C.ar    1  UNL1        0.0200
     18 C         146.8303  141.9559  155.0638 C.ar    1  UNL1        0.0129
     19 C         146.2222  141.0495  154.0349 C.ar    1  UNL1        0.0578
     20 CL        146.7552  141.0422  152.6328 Cl      1  UNL1       -0.0822
     21 C         145.0811  140.1503  154.4082 C.ar    1  UNL1        0.0129
     22 C         144.5482  140.1576  155.8103 C.ar    1  UNL1        0.0200
     23 N         140.8510  141.1224  168.1649 N.pl3   1  UNL1       -0.3004
     24 C         140.5371  139.9131  168.9949 C.3     1  UNL1        0.1228
     25 C         140.0304  140.3835  170.3261 C.3     1  UNL1        0.1585
     26 O         139.5987  139.5077  171.4648 O.3     1  UNL1       -0.3802
     27 C         140.0313  141.8835  170.3187 C.3     1  UNL1        0.1585
     28 O         139.6006  142.7709  171.4487 O.3     1  UNL1       -0.3802
     29 C         140.5385  142.3402  168.9830 C.3     1  UNL1        0.1228
     30 H         139.3150  140.0613  172.2090 H       1  UNL1        0.2105
     31 H         139.3163  142.2250  172.1984 H       1  UNL1        0.2105
     32 C         138.4836  139.1338  165.6141 C.3     1  UNL1        0.2525
     33 O         139.0210  140.5111  165.8676 O.3     1  UNL1       -0.4701
@<TRIPOS>BOND
     1    32    33    1
     2    33     1    1
     3     1     2   ar
     4     2     3   ar
     5     3     7    1
     6     7     8    1
     7     8     9    1
     8     9    10   ar
     9    10    11   ar
    10    11    16    1
    11    16    17   ar
    12    17    18   ar
    13    18    19   ar
    14    19    20    1
    15    19    21   ar
    16    21    22   ar
    17    11    12   ar
    18    12    13   ar
    19    13    14    1
    20    14    15    2
    21     3     4   ar
    22     4     5   ar
    23     5     6   ar
    24     6    23    1
    25    23    24    1
    26    24    25    1
    27    25    26    1
    28    25    27    1
    29    27    28    1
    30    27    29    1
    31     6     1   ar
    32    29    23    1
    33    14     7   am
    34    13     9   ar
    35    22    16   ar
    36    26    30    1
    37    28    31    1
@<TRIPOS>MOLECULE
*****
 33 37 0 0 0
SMALL
GASTEIGER

@<TRIPOS>ATOM
      1 C         140.5705  142.2599  165.2216 C.ar    1  UNL1        0.1531
      2 C         141.1813  142.2953  163.8521 C.ar    1  UNL1        0.0531
      3 C         142.5044  141.6338  163.6036 C.ar    1  UNL1        0.0576
      4 C         143.2167  140.9368  164.7247 C.ar    1  UNL1        0.0164
      5 C         142.6060  140.9014  166.0943 C.ar    1  UNL1        0.0189
      6 C         141.2829  141.5629  166.3428 C.ar    1  UNL1        0.0825
      7 N         143.1152  141.6692  162.2341 N.am    1  UNL1       -0.2494
      8 C         142.9156  140.6487  161.1530 C.3     1  UNL1        0.1283
      9 C         143.7099  141.0802  159.9559 C.ar    1  UNL1        0.0411
     10 C         144.0774  140.7161  158.5479 C.ar    1  UNL1        0.0994
     11 N         144.9951  141.7782  158.0191 N.ar    1  UNL1       -0.2283
     12 N         145.1947  142.7987  159.1002 N.ar    1  UNL1       -0.1607
     13 C         144.4004  142.3673  160.2972 C.ar    1  UNL1        0.1540
     14 C         144.0330  142.7313  161.7052 C.2     1  UNL1        0.2722
     15 O         144.5010  143.9445  162.4530 O.2     1  UNL1       -0.2679
     16 C         145.6059  141.8137  156.6495 C.ar    1  UNL1        0.0829
     17 C         147.0090  142.3114  156.4668 C.ar    1  UNL1        0.0200
     18 C         147.6198  142.3469  155.0971 C.ar    1  UNL1        0.0129
     19 C         146.8274  141.8846  153.9104 C.ar    1  UNL1        0.0578
     20 CL        147.4382  141.9200  152.5408 Cl      1  UNL1       -0.0822
     21 C         145.4243  141.3868  154.0931 C.ar    1  UNL1        0.0129
     22 C         144.8135  141.3514  155.4627 C.ar    1  UNL1        0.0200
     23 N         140.6720  141.5275  167.7123 N.pl3   1  UNL1       -0.3004
     24 C         139.9822  140.3526  168.3399 C.3     1  UNL1        0.1228
     25 C         139.5276  140.7597  169.7102 C.3     1  UNL1        0.1585
     26 O         138.7932  139.8926  170.6893 O.3     1  UNL1       -0.3802
     27 C         139.9365  142.1862  169.9294 C.3     1  UNL1        0.1585
     28 O         139.6826  142.9959  171.1663 O.3     1  UNL1       -0.3802
     29 C         140.6438  142.6607  168.6947 C.3     1  UNL1        0.1228
     30 H         138.6176  140.3966  171.4993 H       1  UNL1        0.2105
     31 H         139.2073  142.4542  171.8155 H       1  UNL1        0.2105
     32 C         139.0941  144.3975  165.2517 C.3     1  UNL1        0.2525
     33 O         139.2473  142.9214  165.4701 O.3     1  UNL1       -0.4701
@<TRIPOS>BOND
     1    32    33    1
     2    33     1    1
     3     1     2   ar
     4     2     3   ar
     5     3     7    1
     6     7     8    1
     7     8     9    1
     8     9    10   ar
     9    10    11   ar
    10    11    16    1
    11    16    17   ar
    12    17    18   ar
    13    18    19   ar
    14    19    20    1
    15    19    21   ar
    16    21    22   ar
    17    11    12   ar
    18    12    13   ar
    19    13    14    1
    20    14    15    2
    21     3     4   ar
    22     4     5   ar
    23     5     6   ar
    24     6    23    1
    25    23    24    1
    26    24    25    1
    27    25    26    1
    28    25    27    1
    29    27    28    1
    30    27    29    1
    31     6     1   ar
    32    29    23    1
    33    14     7   am
    34    13     9   ar
    35    22    16   ar
    36    26    30    1
    37    28    31    1
@<TRIPOS>MOLECULE
*****
 33 37 0 0 0
SMALL
GASTEIGER

@<TRIPOS>ATOM
      1 C         141.4487  141.1553  165.8765 C.ar    1  UNL1        0.1531
      2 C         140.9833  141.2638  164.4548 C.ar    1  UNL1        0.0531
      3 C         139.6780  140.6493  164.0438 C.ar    1  UNL1        0.0576
      4 C         138.8382  139.9264  165.0548 C.ar    1  UNL1        0.0164
      5 C         139.3036  139.8178  166.4767 C.ar    1  UNL1        0.0189
      6 C         140.6088  140.4323  166.8875 C.ar    1  UNL1        0.0825
      7 N         139.2126  140.7578  162.6221 N.am    1  UNL1       -0.2494
      8 C         139.3366  141.9673  161.7435 C.3     1  UNL1        0.1283
      9 C         138.7421  141.6328  160.4076 C.ar    1  UNL1        0.0411
     10 C         138.4514  142.1737  159.0391 C.ar    1  UNL1        0.0994
     11 N         137.7802  141.0917  158.2461 N.ar    1  UNL1       -0.2283
     12 N         137.6561  139.8822  159.1245 N.ar    1  UNL1       -0.1607
     13 C         138.2506  140.2166  160.4605 C.ar    1  UNL1        0.1540
     14 C         138.5414  139.6758  161.8290 C.2     1  UNL1        0.2722
     15 O         138.2177  138.2954  162.3186 O.2     1  UNL1       -0.2679
     16 C         137.3148  141.2001  156.8243 C.ar    1  UNL1        0.0829
     17 C         135.8645  141.0074  156.4930 C.ar    1  UNL1        0.0200
     18 C         135.3992  141.1159  155.0711 C.ar    1  UNL1        0.0129
     19 C         136.3840  141.4171  153.9805 C.ar    1  UNL1        0.0578
     20 CL        135.9185  141.5255  152.5587 Cl      1  UNL1       -0.0822
     21 C         137.8342  141.6099  154.3117 C.ar    1  UNL1        0.0129
     22 C         138.2995  141.5014  155.7336 C.ar    1  UNL1        0.0200
     23 N         141.0743  140.3238  168.3094 N.pl3   1  UNL1       -0.3004
     24 C         142.4204  139.8412  168.7620 C.3     1  UNL1        0.1228
     25 C         142.4534  139.8980  170.2605 C.3     1  UNL1        0.1585
     26 O         143.6093  139.5059  171.1325 O.3     1  UNL1       -0.3802
     27 C         141.1277  140.4158  170.7341 C.3     1  UNL1        0.1585
     28 O         140.7250  140.6323  172.1627 O.3     1  UNL1       -0.3802
     29 C         140.2753  140.6789  169.5282 C.3     1  UNL1        0.1228
     30 H         143.3713  139.6379  172.0635 H       1  UNL1        0.2105
     31 H         141.4589  140.3847  172.7466 H       1  UNL1        0.2105
     32 C         143.6555  142.3767  165.2536 C.3     1  UNL1        0.2525
     33 O         142.7539  141.7697  166.2874 O.3     1  UNL1       -0.4701
@<TRIPOS>BOND
     1    32    33    1
     2    33     1    1
     3     1     2   ar
     4     2     3   ar
     5     3     7    1
     6     7     8    1
     7     8     9    1
     8     9    10   ar
     9    10    11   ar
    10    11    16    1
    11    16    17   ar
    12    17    18   ar
    13    18    19   ar
    14    19    20    1
    15    19    21   ar
    16    21    22   ar
    17    11    12   ar
    18    12    13   ar
    19    13    14    1
    20    14    15    2
    21     3     4   ar
    22     4     5   ar
    23     5     6   ar
    24     6    23    1
    25    23    24    1
    26    24    25    1
    27    25    26    1
    28    25    27    1
    29    27    28    1
    30    27    29    1
    31     6     1   ar
    32    29    23    1
    33    14     7   am
    34    13     9   ar
    35    22    16   ar
    36    26    30    1
    37    28    31    1
@<TRIPOS>MOLECULE
*****
 33 37 0 0 0
SMALL
GASTEIGER

@<TRIPOS>ATOM
      1 C         141.3217  141.8888  165.7224 C.ar    1  UNL1        0.1531
      2 C         141.3076  141.3466  164.3239 C.ar    1  UNL1        0.0531
      3 C         141.8911  139.9947  164.0377 C.ar    1  UNL1        0.0576
      4 C         142.4886  139.1850  165.1500 C.ar    1  UNL1        0.0164
      5 C         142.5028  139.7272  166.5486 C.ar    1  UNL1        0.0189
      6 C         141.9194  141.0791  166.8347 C.ar    1  UNL1        0.0825
      7 N         141.8769  139.4525  162.6393 N.am    1  UNL1       -0.2494
      8 C         140.6959  139.4287  161.7147 C.3     1  UNL1        0.1283
      9 C         141.1304  138.8004  160.4238 C.ar    1  UNL1        0.0411
     10 C         140.6690  138.3973  159.0546 C.ar    1  UNL1        0.0994
     11 N         141.8334  137.7837  158.3351 N.ar    1  UNL1       -0.2283
     12 N         143.0144  137.8075  159.2596 N.ar    1  UNL1       -0.1607
     13 C         142.5799  138.4358  160.5505 C.ar    1  UNL1        0.1540
     14 C         143.0413  138.8388  161.9197 C.2     1  UNL1        0.2722
     15 O         144.4243  138.6597  162.4723 O.2     1  UNL1       -0.2679
     16 C         141.8193  137.2415  156.9366 C.ar    1  UNL1        0.0829
     17 C         143.0957  136.7794  156.2984 C.ar    1  UNL1        0.0200
     18 C         143.0815  136.2372  154.8999 C.ar    1  UNL1        0.0129
     19 C         141.7909  136.1571  154.1395 C.ar    1  UNL1        0.0578
     20 CL        141.7768  135.6149  152.7410 Cl      1  UNL1       -0.0822
     21 C         140.5146  136.6192  154.7777 C.ar    1  UNL1        0.0129
     22 C         140.5288  137.1614  156.1762 C.ar    1  UNL1        0.0200
     23 N         141.9335  141.6213  168.2332 N.pl3   1  UNL1       -0.3004
     24 C         140.9109  141.3465  169.2957 C.3     1  UNL1        0.1228
     25 C         141.3181  142.0889  170.5339 C.3     1  UNL1        0.1585
     26 O         140.5806  142.0964  171.8401 O.3     1  UNL1       -0.3802
     27 C         142.5923  142.8225  170.2366 C.3     1  UNL1        0.1585
     28 O         143.3526  143.6923  171.1933 O.3     1  UNL1       -0.3802
     29 C         142.9726  142.5335  168.8147 C.3     1  UNL1        0.1228
     30 H         141.0552  142.6542  172.4761 H       1  UNL1        0.2105
     31 H         142.8931  143.7123  172.0473 H       1  UNL1        0.2105
     32 C         139.5531  143.7267  165.2280 C.3     1  UNL1        0.2525
     33 O         140.7383  143.2408  166.0086 O.3     1  UNL1       -0.4701
@<TRIPOS>BOND
     1    32    33    1
     2    33     1    1
     3     1     2   ar
     4     2     3   ar
     5     3     7    1
     6     7     8    1
     7     8     9    1
     8     9    10   ar
     9    10    11   ar
    10    11    16    1
    11    16    17   ar
    12    17    18   ar
    13    18    19   ar
    14    19    20    1
    15    19    21   ar
    16    21    22   ar
    17    11    12   ar
    18    12    13   ar
    19    13    14    1
    20    14    15    2
    21     3     4   ar
    22     4     5   ar
    23     5     6   ar
    24     6    23    1
    25    23    24    1
    26    24    25    1
    27    25    26    1
    28    25    27    1
    29    27    28    1
    30    27    29    1
    31     6     1   ar
    32    29    23    1
    33    14     7   am
    34    13     9   ar
    35    22    16   ar
    36    26    30    1
    37    28    31    1
@<TRIPOS>MOLECULE
*****
 33 37 0 0 0
SMALL
GASTEIGER

@<TRIPOS>ATOM
      1 C         140.6831  140.4029  166.1163 C.ar    1  UNL1        0.1531
      2 C         140.7297  139.7517  164.7659 C.ar    1  UNL1        0.0531
      3 C         141.6387  140.2937  163.7028 C.ar    1  UNL1        0.0576
      4 C         142.5011  141.4869  163.9903 C.ar    1  UNL1        0.0164
      5 C         142.4546  142.1381  165.3408 C.ar    1  UNL1        0.0189
      6 C         141.5456  141.5961  166.4038 C.ar    1  UNL1        0.0825
      7 N         141.6853  139.6426  162.3524 N.am    1  UNL1       -0.2494
      8 C         142.7426  138.6963  161.8658 C.3     1  UNL1        0.1283
      9 C         142.3935  138.2922  160.4641 C.ar    1  UNL1        0.0411
     10 C         142.8312  137.4577  159.2971 C.ar    1  UNL1        0.0994
     11 N         141.8287  137.6385  158.1960 N.ar    1  UNL1       -0.2283
     12 N         140.7714  138.5848  158.6826 N.ar    1  UNL1       -0.1607
     13 C         141.1205  138.9888  160.0843 C.ar    1  UNL1        0.1540
     14 C         140.6828  139.8234  161.2513 C.2     1  UNL1        0.2722
     15 O         139.4577  140.6871  161.3074 O.2     1  UNL1       -0.2679
     16 C         141.8753  136.9873  156.8455 C.ar    1  UNL1        0.0829
     17 C         140.6181  136.8386  156.0409 C.ar    1  UNL1        0.0200
     18 C         140.6648  136.1874  154.6903 C.ar    1  UNL1        0.0129
     19 C         141.9685  135.6850  154.1445 C.ar    1  UNL1        0.0578
     20 CL        142.0150  135.0338  152.7940 Cl      1  UNL1       -0.0822
     21 C         143.2256  135.8337  154.9492 C.ar    1  UNL1        0.0129
     22 C         143.1789  136.4849  156.2997 C.ar    1  UNL1        0.0200
     23 N         141.4990  142.2473  167.7543 N.pl3   1  UNL1       -0.3004
     24 C         140.3306  142.9855  168.3373 C.3     1  UNL1        0.1228
     25 C         140.7220  143.4690  169.7022 C.3     1  UNL1        0.1585
     26 O         139.8554  144.2541  170.6416 O.3     1  UNL1       -0.3802
     27 C         142.1323  143.0295  169.9628 C.3     1  UNL1        0.1585
     28 O         142.9235  143.2980  171.2085 O.3     1  UNL1       -0.3802
     29 C         142.6125  142.2744  168.7589 C.3     1  UNL1        0.1228
     30 H         140.3475  144.4399  171.4566 H       1  UNL1        0.2105
     31 H         142.3817  143.8060  171.8325 H       1  UNL1        0.2105
     32 C         138.5265  139.1226  166.7944 C.3     1  UNL1        0.2525
     33 O         139.7741  139.8609  167.1794 O.3     1  UNL1       -0.4701
@<TRIPOS>BOND
     1    32    33    1
     2    33     1    1
     3     1     2   ar
     4     2     3   ar
     5     3     7    1
     6     7     8    1
     7     8     9    1
     8     9    10   ar
     9    10    11   ar
    10    11    16    1
    11    16    17   ar
    12    17    18   ar
    13    18    19   ar
    14    19    20    1
    15    19    21   ar
    16    21    22   ar
    17    11    12   ar
    18    12    13   ar
    19    13    14    1
    20    14    15    2
    21     3     4   ar
    22     4     5   ar
    23     5     6   ar
    24     6    23    1
    25    23    24    1
    26    24    25    1
    27    25    26    1
    28    25    27    1
    29    27    28    1
    30    27    29    1
    31     6     1   ar
    32    29    23    1
    33    14     7   am
    34    13     9   ar
    35    22    16   ar
    36    26    30    1
    37    28    31    1
@<TRIPOS>MOLECULE
*****
 33 37 0 0 0
SMALL
GASTEIGER

@<TRIPOS>ATOM
      1 C         140.2138  138.3233  157.5701 C.ar    1  UNL1        0.1531
      2 C         140.0332  138.8247  158.9721 C.ar    1  UNL1        0.0531
      3 C         141.1588  138.7175  159.9579 C.ar    1  UNL1        0.0576
      4 C         142.4650  138.1090  159.5414 C.ar    1  UNL1        0.0164
      5 C         142.6457  137.6075  158.1392 C.ar    1  UNL1        0.0189
      6 C         141.5201  137.7147  157.1536 C.ar    1  UNL1        0.0825
      7 N         140.9782  139.2189  161.3599 N.am    1  UNL1       -0.2494
      8 C         140.8581  140.6557  161.7740 C.3     1  UNL1        0.1283
      9 C         140.6916  140.6963  163.2641 C.ar    1  UNL1        0.0411
     10 C         140.5146  141.6094  164.4409 C.ar    1  UNL1        0.0994
     11 N         140.4222  140.7621  165.6752 N.ar    1  UNL1       -0.2283
     12 N         140.5423  139.3253  165.2613 N.ar    1  UNL1       -0.1607
     13 C         140.7088  139.2847  163.7711 C.ar    1  UNL1        0.1540
     14 C         140.8858  138.3716  162.5943 C.2     1  UNL1        0.2722
     15 O         140.9579  136.8741  162.6432 O.2     1  UNL1       -0.2679
     16 C         140.2416  141.2635  167.0774 C.ar    1  UNL1        0.0829
     17 C         139.6822  140.3556  168.1323 C.ar    1  UNL1        0.0200
     18 C         139.5016  140.8571  169.5344 C.ar    1  UNL1        0.0129
     19 C         139.8804  142.2663  169.8817 C.ar    1  UNL1        0.0578
     20 CL        139.6998  142.7677  171.2838 Cl      1  UNL1       -0.0822
     21 C         140.4398  143.1742  168.8268 C.ar    1  UNL1        0.0129
     22 C         140.6204  142.6727  167.4246 C.ar    1  UNL1        0.0200
     23 N         141.7007  137.2133  155.7514 N.pl3   1  UNL1       -0.3004
     24 C         142.0832  138.0421  154.5612 C.3     1  UNL1        0.1228
     25 C         142.1494  137.1361  153.3675 C.3     1  UNL1        0.1585
     26 O         142.4963  137.5467  151.9671 O.3     1  UNL1       -0.3802
     27 C         141.8078  135.7474  153.8201 C.3     1  UNL1        0.1585
     28 O         141.7531  134.5256  152.9517 O.3     1  UNL1       -0.3802
     29 C         141.5304  135.7951  155.2934 C.3     1  UNL1        0.1228
     30 H         142.4673  136.7706  151.3860 H       1  UNL1        0.2105
     31 H         141.9745  134.7675  152.0388 H       1  UNL1        0.2105
     32 C         138.7581  139.7557  155.9641 C.3     1  UNL1        0.2525
     33 O         139.0882  138.4304  156.5843 O.3     1  UNL1       -0.4701
@<TRIPOS>BOND
     1    32    33    1
     2    33     1    1
     3     1     2   ar
     4     2     3   ar
     5     3     7    1
     6     7     8    1
     7     8     9    1
     8     9    10   ar
     9    10    11   ar
    10    11    16    1
    11    16    17   ar
    12    17    18   ar
    13    18    19   ar
    14    19    20    1
    15    19    21   ar
    16    21    22   ar
    17    11    12   ar
    18    12    13   ar
    19    13    14    1
    20    14    15    2
    21     3     4   ar
    22     4     5   ar
    23     5     6   ar
    24     6    23    1
    25    23    24    1
    26    24    25    1
    27    25    26    1
    28    25    27    1
    29    27    28    1
    30    27    29    1
    31     6     1   ar
    32    29    23    1
    33    14     7   am
    34    13     9   ar
    35    22    16   ar
    36    26    30    1
    37    28    31    1
@<TRIPOS>MOLECULE
*****
 33 37 0 0 0
SMALL
GASTEIGER

@<TRIPOS>ATOM
      1 C         141.9639  141.8411  159.9701 C.ar    1  UNL1        0.1531
      2 C         142.2389  140.6331  159.1245 C.ar    1  UNL1        0.0531
      3 C         141.1671  139.6050  158.9143 C.ar    1  UNL1        0.0576
      4 C         139.8203  139.7849  159.5497 C.ar    1  UNL1        0.0164
      5 C         139.5452  140.9929  160.3953 C.ar    1  UNL1        0.0189
      6 C         140.6171  142.0210  160.6055 C.ar    1  UNL1        0.0825
      7 N         141.4420  138.3970  158.0687 N.am    1  UNL1       -0.2494
      8 C         142.6702  137.5380  158.1311 C.3     1  UNL1        0.1283
      9 C         142.5243  136.4460  157.1131 C.ar    1  UNL1        0.0411
     10 C         143.1932  135.2403  156.5226 C.ar    1  UNL1        0.0994
     11 N         142.2883  134.6791  155.4661 N.ar    1  UNL1       -0.2283
     12 N         141.0601  135.5380  155.4037 N.ar    1  UNL1       -0.1607
     13 C         141.2060  136.6300  156.4216 C.ar    1  UNL1        0.1540
     14 C         140.5371  137.8358  157.0121 C.2     1  UNL1        0.2722
     15 O         139.1983  138.3841  156.6157 O.2     1  UNL1       -0.2679
     16 C         142.5633  133.4711  154.6205 C.ar    1  UNL1        0.0829
     17 C         143.4111  132.3565  155.1579 C.ar    1  UNL1        0.0200
     18 C         143.6860  131.1485  154.3122 C.ar    1  UNL1        0.0129
     19 C         143.1131  131.0550  152.9291 C.ar    1  UNL1        0.0578
     20 CL        143.3881  129.8470  152.0834 Cl      1  UNL1       -0.0822
     21 C         142.2653  132.1696  152.3916 C.ar    1  UNL1        0.0129
     22 C         141.9904  133.3776  153.2373 C.ar    1  UNL1        0.0200
     23 N         140.3421  143.2290  161.4512 N.pl3   1  UNL1       -0.3004
     24 C         140.3840  144.6559  160.9903 C.3     1  UNL1        0.1228
     25 C         140.0448  145.5310  162.1604 C.3     1  UNL1        0.1585
     26 O         139.9702  147.0291  162.1486 O.3     1  UNL1       -0.3802
     27 C         139.7933  144.6450  163.3443 C.3     1  UNL1        0.1585
     28 O         139.4230  145.1016  164.7244 O.3     1  UNL1       -0.3802
     29 C         139.9770  143.2223  162.9060 C.3     1  UNL1        0.1228
     30 H         139.7315  147.3479  163.0331 H       1  UNL1        0.2105
     31 H         139.3687  146.0699  164.7409 H       1  UNL1        0.2105
     32 C         143.9795  142.7425  161.3394 C.3     1  UNL1        0.2525
     33 O         143.0358  142.8692  160.1804 O.3     1  UNL1       -0.4701
@<TRIPOS>BOND
     1    32    33    1
     2    33     1    1
     3     1     2   ar
     4     2     3   ar
     5     3     7    1
     6     7     8    1
     7     8     9    1
     8     9    10   ar
     9    10    11   ar
    10    11    16    1
    11    16    17   ar
    12    17    18   ar
    13    18    19   ar
    14    19    20    1
    15    19    21   ar
    16    21    22   ar
    17    11    12   ar
    18    12    13   ar
    19    13    14    1
    20    14    15    2
    21     3     4   ar
    22     4     5   ar
    23     5     6   ar
    24     6    23    1
    25    23    24    1
    26    24    25    1
    27    25    26    1
    28    25    27    1
    29    27    28    1
    30    27    29    1
    31     6     1   ar
    32    29    23    1
    33    14     7   am
    34    13     9   ar
    35    22    16   ar
    36    26    30    1
    37    28    31    1
