@<TRIPOS>MOLECULE
*****
 33 36 0 0 0
SMALL
GASTEIGER

@<TRIPOS>ATOM
      1 N         138.2521  140.2702  159.0673 N.pl3   1  UNL1       -0.2847
      2 C         137.8981  140.7016  160.4596 C.3     1  UNL1        0.1141
      3 C         138.5388  140.0309  161.6384 C.3     1  UNL1        0.1149
      4 N         139.5336  138.9287  161.4248 N.am    1  UNL1       -0.2760
      5 C         140.1743  138.2579  162.6037 C.2     1  UNL1        0.2257
      6 O         141.1691  137.1557  162.3901 O.2     1  UNL1       -0.2749
      7 C         139.8876  138.4972  160.0325 C.3     1  UNL1        0.1149
      8 C         139.2469  139.1680  158.8538 C.3     1  UNL1        0.1141
      9 C         136.9930  143.8569  155.4024 C.3     1  UNL1        0.0398
     10 C         137.0326  142.5896  156.2039 C.ar    1  UNL1        0.0319
     11 S         137.8936  142.3326  157.4050 S.2     1  UNL1       -0.0560
     12 C         137.6113  140.9410  157.8885 C.ar    1  UNL1        0.1628
     13 N         136.5759  140.3379  156.9863 N.ar    1  UNL1       -0.2204
     14 C         136.2182  141.3568  155.9451 C.ar    1  UNL1        0.1565
     15 C         135.2211  141.1749  154.8393 C.3     1  UNL1        0.4351
     16 F         134.2240  140.9929  153.7335 F       1  UNL1       -0.1644
     17 F         134.1009  141.3787  155.8159 F       1  UNL1       -0.1644
     18 F         136.3413  140.9711  153.8628 F       1  UNL1       -0.1644
     19 C         139.8203  138.6893  163.9959 C.3     1  UNL1        0.0853
     20 C         138.6884  138.0248  164.7221 C.3     1  UNL1        0.0096
     21 C         138.3344  138.4563  166.1144 C.3     1  UNL1        0.0005
     22 C         139.1123  139.5523  166.7806 C.3     1  UNL1        0.0005
     23 C         140.2442  140.2168  166.0544 C.3     1  UNL1        0.0096
     24 C         140.5982  139.7853  164.6622 C.3     1  UNL1        0.0851
     25 C         141.7301  140.4498  163.9360 C.2     1  UNL1        0.2231
     26 O         141.4570  141.6034  163.0168 O.2     1  UNL1       -0.2751
     27 N         143.1349  139.9609  164.1291 N.am    1  UNL1       -0.2959
     28 H         143.3141  139.2038  164.7324 H       1  UNL1        0.1502
     29 C         144.2668  140.6254  163.4029 C.3     1  UNL1        0.1364
     30 C         145.4161  141.5492  163.1282 C.3     1  UNL1        0.0353
     31 C         144.7101  141.6031  164.4506 C.3     1  UNL1        0.0353
     32 C         144.2166  139.8785  162.1031 C.1     1  UNL1        0.0896
     33 N         144.1663  139.1316  160.8032 N.1     1  UNL1       -0.1943
@<TRIPOS>BOND
     1     9    10    1
     2    10    11   ar
     3    11    12   ar
     4    12     1    1
     5     1     2    1
     6     2     3    1
     7     3     4    1
     8     4     5   am
     9     5     6    2
    10    19     5    1
    11    19    20    1
    12    20    21    1
    13    21    22    1
    14    22    23    1
    15    23    24    1
    16    24    25    1
    17    25    26    2
    18    25    27   am
    19    27    29    1
    20    29    32    1
    21    32    33    3
    22    29    30    1
    23    30    31    1
    24     4     7    1
    25     7     8    1
    26    12    13   ar
    27    13    14   ar
    28    14    15    1
    29    15    16    1
    30    15    17    1
    31    15    18    1
    32    14    10   ar
    33     8     1    1
    34    24    19    1
    35    31    29    1
    36    27    28    1
@<TRIPOS>MOLECULE
*****
 33 36 0 0 0
SMALL
GASTEIGER

@<TRIPOS>ATOM
      1 N         141.3678  139.3002  159.6440 N.pl3   1  UNL1       -0.2847
      2 C         142.5444  139.7215  160.4734 C.3     1  UNL1        0.1141
      3 C         142.3560  140.6850  161.6075 C.3     1  UNL1        0.1149
      4 N         140.9909  141.2271  161.9121 N.am    1  UNL1       -0.2760
      5 C         140.8026  142.1906  163.0463 C.2     1  UNL1        0.2257
      6 O         139.4375  142.7328  163.3509 O.2     1  UNL1       -0.2749
      7 C         139.8143  140.8058  161.0827 C.3     1  UNL1        0.1149
      8 C         140.0027  139.8423  159.9486 C.3     1  UNL1        0.1141
      9 C         140.5377  136.4909  155.2508 C.3     1  UNL1        0.0398
     10 C         141.1745  137.0454  156.4905 C.ar    1  UNL1        0.0319
     11 S         140.5805  138.0800  157.3997 S.2     1  UNL1       -0.0560
     12 C         141.5561  138.3367  158.5098 C.ar    1  UNL1        0.1628
     13 N         142.7532  137.4607  158.2867 N.ar    1  UNL1       -0.2204
     14 C         142.5174  136.6627  157.0387 C.ar    1  UNL1        0.1565
     15 C         143.4590  135.6582  156.4433 C.3     1  UNL1        0.4351
     16 F         144.4007  134.6538  155.8480 F       1  UNL1       -0.1644
     17 F         142.6690  134.5470  157.0687 F       1  UNL1       -0.1644
     18 F         144.2490  136.7695  155.8180 F       1  UNL1       -0.1644
     19 C         141.9792  142.6120  163.8757 C.3     1  UNL1        0.0853
     20 C         142.8700  143.7228  163.4040 C.3     1  UNL1        0.0096
     21 C         144.0467  144.1441  164.2335 C.3     1  UNL1        0.0005
     22 C         144.3325  143.4547  165.5347 C.3     1  UNL1        0.0005
     23 C         143.4416  142.3439  166.0063 C.3     1  UNL1        0.0096
     24 C         142.2650  141.9225  165.1769 C.3     1  UNL1        0.0851
     25 C         141.3741  140.8117  165.6486 C.2     1  UNL1        0.2231
     26 O         141.8749  139.3977  165.6496 O.2     1  UNL1       -0.2751
     27 N         139.9825  141.1148  166.1192 N.am    1  UNL1       -0.2959
     28 H         139.6539  142.0429  166.1185 H       1  UNL1        0.1502
     29 C         139.0917  140.0040  166.5909 C.3     1  UNL1        0.1364
     30 C         138.0510  138.9241  166.5646 C.3     1  UNL1        0.0353
     31 C         138.3509  139.7070  165.3208 C.3     1  UNL1        0.0353
     32 C         139.5230  139.9152  168.0248 C.1     1  UNL1        0.0896
     33 N         139.9544  139.8264  169.4587 N.1     1  UNL1       -0.1943
@<TRIPOS>BOND
     1     9    10    1
     2    10    11   ar
     3    11    12   ar
     4    12     1    1
     5     1     2    1
     6     2     3    1
     7     3     4    1
     8     4     5   am
     9     5     6    2
    10    19     5    1
    11    19    20    1
    12    20    21    1
    13    21    22    1
    14    22    23    1
    15    23    24    1
    16    24    25    1
    17    25    26    2
    18    25    27   am
    19    27    29    1
    20    29    32    1
    21    32    33    3
    22    29    30    1
    23    30    31    1
    24     4     7    1
    25     7     8    1
    26    12    13   ar
    27    13    14   ar
    28    14    15    1
    29    15    16    1
    30    15    17    1
    31    15    18    1
    32    14    10   ar
    33     8     1    1
    34    24    19    1
    35    31    29    1
    36    27    28    1
@<TRIPOS>MOLECULE
*****
 33 36 0 0 0
SMALL
GASTEIGER

@<TRIPOS>ATOM
      1 N         142.5277  138.9024  159.7830 N.pl3   1  UNL1       -0.2847
      2 C         141.5276  139.9742  160.1007 C.3     1  UNL1        0.1141
      3 C         141.7169  140.8422  161.3093 C.3     1  UNL1        0.1149
      4 N         142.9064  140.6383  162.2002 N.am    1  UNL1       -0.2760
      5 C         143.0957  141.5063  163.4089 C.2     1  UNL1        0.2257
      6 O         144.2851  141.3024  164.2998 O.2     1  UNL1       -0.2749
      7 C         143.9064  139.5664  161.8825 C.3     1  UNL1        0.1149
      8 C         143.7171  138.6985  160.6739 C.3     1  UNL1        0.1141
      9 C         140.5242  136.8045  155.3710 C.3     1  UNL1        0.0398
     10 C         141.4174  137.0701  156.5464 C.ar    1  UNL1        0.0319
     11 S         141.2084  138.1251  157.5919 S.2     1  UNL1       -0.0560
     12 C         142.3383  138.0344  158.5744 C.ar    1  UNL1        0.1628
     13 N         143.2456  136.9233  158.1360 N.ar    1  UNL1       -0.2204
     14 C         142.6765  136.3273  156.8826 C.ar    1  UNL1        0.1565
     15 C         143.2634  135.1885  156.1024 C.3     1  UNL1        0.4351
     16 F         143.8503  134.0496  155.3222 F       1  UNL1       -0.1644
     17 F         142.2122  134.2703  156.6520 F       1  UNL1       -0.1644
     18 F         144.3145  136.1067  155.5528 F       1  UNL1       -0.1644
     19 C         142.0956  142.5781  163.7266 C.3     1  UNL1        0.0853
     20 C         142.3496  143.9924  163.2960 C.3     1  UNL1        0.0096
     21 C         141.3495  145.0642  163.6138 C.3     1  UNL1        0.0005
     22 C         140.0954  144.7218  164.3621 C.3     1  UNL1        0.0005
     23 C         139.8414  143.3076  164.7926 C.3     1  UNL1        0.0096
     24 C         140.8414  142.2357  164.4749 C.3     1  UNL1        0.0851
     25 C         140.5874  140.8215  164.9055 C.2     1  UNL1        0.2231
     26 O         141.4528  140.1903  165.9557 O.2     1  UNL1       -0.2751
     27 N         139.4681  140.0384  164.2859 N.am    1  UNL1       -0.2959
     28 H         138.9002  140.4527  163.5966 H       1  UNL1        0.1502
     29 C         139.2141  138.6242  164.7164 C.3     1  UNL1        0.1364
     30 C         138.6495  137.4630  165.4799 C.3     1  UNL1        0.0353
     31 C         138.2316  138.8617  165.8247 C.3     1  UNL1        0.0353
     32 C         140.1084  137.8954  163.7578 C.1     1  UNL1        0.0896
     33 N         141.0027  137.1665  162.7991 N.1     1  UNL1       -0.1943
@<TRIPOS>BOND
     1     9    10    1
     2    10    11   ar
     3    11    12   ar
     4    12     1    1
     5     1     2    1
     6     2     3    1
     7     3     4    1
     8     4     5   am
     9     5     6    2
    10    19     5    1
    11    19    20    1
    12    20    21    1
    13    21    22    1
    14    22    23    1
    15    23    24    1
    16    24    25    1
    17    25    26    2
    18    25    27   am
    19    27    29    1
    20    29    32    1
    21    32    33    3
    22    29    30    1
    23    30    31    1
    24     4     7    1
    25     7     8    1
    26    12    13   ar
    27    13    14   ar
    28    14    15    1
    29    15    16    1
    30    15    17    1
    31    15    18    1
    32    14    10   ar
    33     8     1    1
    34    24    19    1
    35    31    29    1
    36    27    28    1
@<TRIPOS>MOLECULE
*****
 33 36 0 0 0
SMALL
GASTEIGER

@<TRIPOS>ATOM
      1 N         140.2486  138.9599  160.2289 N.pl3   1  UNL1       -0.2847
      2 C         140.2858  140.4158  160.5879 C.3     1  UNL1        0.1141
      3 C         139.7980  140.8696  161.9317 C.3     1  UNL1        0.1149
      4 N         139.2729  139.8675  162.9167 N.am    1  UNL1       -0.2760
      5 C         138.7850  140.3214  164.2606 C.2     1  UNL1        0.2257
      6 O         138.2600  139.3193  165.2455 O.2     1  UNL1       -0.2749
      7 C         139.2357  138.4116  162.5577 C.3     1  UNL1        0.1149
      8 C         139.7236  137.9578  161.2139 C.3     1  UNL1        0.1141
      9 C         140.4341  137.8159  155.0774 C.3     1  UNL1        0.0398
     10 C         140.8217  137.9802  156.5171 C.ar    1  UNL1        0.0319
     11 S         139.9465  138.5185  157.6099 S.2     1  UNL1       -0.0560
     12 C         140.7365  138.5060  158.8850 C.ar    1  UNL1        0.1628
     13 N         142.1000  137.9601  158.5803 N.ar    1  UNL1       -0.2204
     14 C         142.1527  137.6351  157.1168 C.ar    1  UNL1        0.1565
     15 C         143.3296  137.0650  156.3821 C.3     1  UNL1        0.4351
     16 F         144.5066  136.4950  155.6473 F       1  UNL1       -0.1644
     17 F         143.6749  138.4333  155.8736 F       1  UNL1       -0.1644
     18 F         142.9843  135.6967  156.8905 F       1  UNL1       -0.1644
     19 C         138.8222  141.7773  164.6195 C.3     1  UNL1        0.0853
     20 C         137.6339  142.6492  164.3405 C.3     1  UNL1        0.0096
     21 C         137.6712  144.1052  164.6995 C.3     1  UNL1        0.0005
     22 C         138.8967  144.6893  165.3374 C.3     1  UNL1        0.0005
     23 C         140.0850  143.8174  165.6163 C.3     1  UNL1        0.0096
     24 C         140.0478  142.3615  165.2574 C.3     1  UNL1        0.0851
     25 C         141.2361  141.4897  165.5364 C.2     1  UNL1        0.2231
     26 O         142.6094  141.9439  165.1390 O.2     1  UNL1       -0.2751
     27 N         141.0512  140.1636  166.2127 N.am    1  UNL1       -0.2959
     28 H         140.1499  139.8655  166.4735 H       1  UNL1        0.1502
     29 C         142.2395  139.2918  166.4917 C.3     1  UNL1        0.1364
     30 C         143.2981  138.2473  166.2966 C.3     1  UNL1        0.0353
     31 C         142.2790  138.4917  165.2235 C.3     1  UNL1        0.0353
     32 C         142.6127  139.7891  167.8567 C.1     1  UNL1        0.0896
     33 N         142.9858  140.2863  169.2218 N.1     1  UNL1       -0.1943
@<TRIPOS>BOND
     1     9    10    1
     2    10    11   ar
     3    11    12   ar
     4    12     1    1
     5     1     2    1
     6     2     3    1
     7     3     4    1
     8     4     5   am
     9     5     6    2
    10    19     5    1
    11    19    20    1
    12    20    21    1
    13    21    22    1
    14    22    23    1
    15    23    24    1
    16    24    25    1
    17    25    26    2
    18    25    27   am
    19    27    29    1
    20    29    32    1
    21    32    33    3
    22    29    30    1
    23    30    31    1
    24     4     7    1
    25     7     8    1
    26    12    13   ar
    27    13    14   ar
    28    14    15    1
    29    15    16    1
    30    15    17    1
    31    15    18    1
    32    14    10   ar
    33     8     1    1
    34    24    19    1
    35    31    29    1
    36    27    28    1
@<TRIPOS>MOLECULE
*****
 33 36 0 0 0
SMALL
GASTEIGER

@<TRIPOS>ATOM
      1 N         142.4033  139.9938  159.2649 N.pl3   1  UNL1       -0.2847
      2 C         141.2643  140.3445  160.1755 C.3     1  UNL1        0.1141
      3 C         141.4051  141.4747  161.1516 C.3     1  UNL1        0.1149
      4 N         142.6850  142.2542  161.2170 N.am    1  UNL1       -0.2760
      5 C         142.8258  143.3844  162.1932 C.2     1  UNL1        0.2257
      6 O         144.1058  144.1638  162.2586 O.2     1  UNL1       -0.2749
      7 C         143.8241  141.9034  160.3063 C.3     1  UNL1        0.1149
      8 C         143.6833  140.7732  159.3303 C.3     1  UNL1        0.1141
      9 C         140.4002  136.6747  155.6799 C.3     1  UNL1        0.0398
     10 C         141.3418  137.3379  156.6409 C.ar    1  UNL1        0.0319
     11 S         141.0406  138.5448  157.4791 S.2     1  UNL1       -0.0560
     12 C         142.2625  138.8635  158.2887 C.ar    1  UNL1        0.1628
     13 N         143.3189  137.8536  157.9508 N.ar    1  UNL1       -0.2204
     14 C         142.7498  136.9107  156.9324 C.ar    1  UNL1        0.1565
     15 C         143.4635  135.7453  156.3140 C.3     1  UNL1        0.4351
     16 F         144.1772  134.5798  155.6956 F       1  UNL1       -0.1644
     17 F         144.2867  136.6881  155.4872 F       1  UNL1       -0.1644
     18 F         142.6404  134.8025  157.1408 F       1  UNL1       -0.1644
     19 C         141.6867  143.7352  163.1039 C.3     1  UNL1        0.0853
     20 C         140.7348  144.8313  162.7264 C.3     1  UNL1        0.0096
     21 C         139.5957  145.1820  163.6371 C.3     1  UNL1        0.0005
     22 C         139.4085  144.4367  164.9253 C.3     1  UNL1        0.0005
     23 C         140.3604  143.3406  165.3028 C.3     1  UNL1        0.0096
     24 C         141.4995  142.9898  164.3921 C.3     1  UNL1        0.0851
     25 C         142.4514  141.8938  164.7696 C.2     1  UNL1        0.2231
     26 O         143.8783  142.2197  165.0980 O.2     1  UNL1       -0.2751
     27 N         141.9764  140.4718  164.8187 N.am    1  UNL1       -0.2959
     28 H         141.0399  140.2579  164.6031 H       1  UNL1        0.1502
     29 C         142.9283  139.3757  165.1961 C.3     1  UNL1        0.1364
     30 C         143.6802  138.3909  166.0416 C.3     1  UNL1        0.0353
     31 C         142.6829  139.3153  166.6747 C.3     1  UNL1        0.0353
     32 C         143.5044  139.0554  163.8487 C.1     1  UNL1        0.0896
     33 N         144.0804  138.7353  162.5013 N.1     1  UNL1       -0.1943
@<TRIPOS>BOND
     1     9    10    1
     2    10    11   ar
     3    11    12   ar
     4    12     1    1
     5     1     2    1
     6     2     3    1
     7     3     4    1
     8     4     5   am
     9     5     6    2
    10    19     5    1
    11    19    20    1
    12    20    21    1
    13    21    22    1
    14    22    23    1
    15    23    24    1
    16    24    25    1
    17    25    26    2
    18    25    27   am
    19    27    29    1
    20    29    32    1
    21    32    33    3
    22    29    30    1
    23    30    31    1
    24     4     7    1
    25     7     8    1
    26    12    13   ar
    27    13    14   ar
    28    14    15    1
    29    15    16    1
    30    15    17    1
    31    15    18    1
    32    14    10   ar
    33     8     1    1
    34    24    19    1
    35    31    29    1
    36    27    28    1
@<TRIPOS>MOLECULE
*****
 33 36 0 0 0
SMALL
GASTEIGER

@<TRIPOS>ATOM
      1 N         138.9815  140.8361  159.4195 N.pl3   1  UNL1       -0.2847
      2 C         140.1146  141.7260  159.8365 C.3     1  UNL1        0.1141
      3 C         140.9505  141.3669  161.0290 C.3     1  UNL1        0.1149
      4 N         140.6533  140.1179  161.8046 N.am    1  UNL1       -0.2760
      5 C         141.4893  139.7588  162.9972 C.2     1  UNL1        0.2257
      6 O         141.1921  138.5097  163.7728 O.2     1  UNL1       -0.2749
      7 C         139.5202  139.2279  161.3876 C.3     1  UNL1        0.1149
      8 C         138.6842  139.5870  160.1951 C.3     1  UNL1        0.1141
      9 C         136.7676  143.5608  155.4754 C.3     1  UNL1        0.0398
     10 C         137.1279  142.4476  156.4140 C.ar    1  UNL1        0.0319
     11 S         138.0891  142.5386  157.5620 S.2     1  UNL1       -0.0560
     12 C         138.1455  141.1951  158.2269 C.ar    1  UNL1        0.1628
     13 N         137.2192  140.2739  157.4899 N.ar    1  UNL1       -0.2204
     14 C         136.5903  141.0479  156.3694 C.ar    1  UNL1        0.1565
     15 C         135.5979  140.5157  155.3784 C.3     1  UNL1        0.4351
     16 F         134.6056  139.9836  154.3874 F       1  UNL1       -0.1644
     17 F         134.4744  140.9198  156.2864 F       1  UNL1       -0.1644
     18 F         136.7214  140.1117  154.4704 F       1  UNL1       -0.1644
     19 C         142.6224  140.6487  163.4142 C.3     1  UNL1        0.0853
     20 C         144.0294  140.3036  163.0253 C.3     1  UNL1        0.0096
     21 C         145.1626  141.1936  163.4423 C.3     1  UNL1        0.0005
     22 C         144.8888  142.4287  164.2482 C.3     1  UNL1        0.0005
     23 C         143.4818  142.7738  164.6371 C.3     1  UNL1        0.0096
     24 C         142.3486  141.8839  164.2202 C.3     1  UNL1        0.0851
     25 C         140.9416  142.2290  164.6091 C.2     1  UNL1        0.2231
     26 O         140.2611  141.4724  165.7112 O.2     1  UNL1       -0.2751
     27 N         140.2152  143.3307  163.8960 N.am    1  UNL1       -0.2959
     28 H         140.6618  143.8272  163.1727 H       1  UNL1        0.1502
     29 C         138.8082  143.6758  164.2850 C.3     1  UNL1        0.1364
     30 C         137.6629  144.3583  164.9723 C.3     1  UNL1        0.0353
     31 C         139.0730  144.7673  165.2792 C.3     1  UNL1        0.0353
     32 C         138.0546  142.7042  163.4258 C.1     1  UNL1        0.0896
     33 N         137.3010  141.7327  162.5667 N.1     1  UNL1       -0.1943
@<TRIPOS>BOND
     1     9    10    1
     2    10    11   ar
     3    11    12   ar
     4    12     1    1
     5     1     2    1
     6     2     3    1
     7     3     4    1
     8     4     5   am
     9     5     6    2
    10    19     5    1
    11    19    20    1
    12    20    21    1
    13    21    22    1
    14    22    23    1
    15    23    24    1
    16    24    25    1
    17    25    26    2
    18    25    27   am
    19    27    29    1
    20    29    32    1
    21    32    33    3
    22    29    30    1
    23    30    31    1
    24     4     7    1
    25     7     8    1
    26    12    13   ar
    27    13    14   ar
    28    14    15    1
    29    15    16    1
    30    15    17    1
    31    15    18    1
    32    14    10   ar
    33     8     1    1
    34    24    19    1
    35    31    29    1
    36    27    28    1
@<TRIPOS>MOLECULE
*****
 33 36 0 0 0
SMALL
GASTEIGER

@<TRIPOS>ATOM
      1 N         138.7033  140.2326  158.8421 N.pl3   1  UNL1       -0.2847
      2 C         137.8459  139.9152  160.0312 C.3     1  UNL1        0.1141
      3 C         138.4783  139.6850  161.3718 C.3     1  UNL1        0.1149
      4 N         139.9681  139.7722  161.5231 N.am    1  UNL1       -0.2760
      5 C         140.6006  139.5420  162.8637 C.2     1  UNL1        0.2257
      6 O         142.0904  139.6292  163.0150 O.2     1  UNL1       -0.2749
      7 C         140.8255  140.0896  160.3339 C.3     1  UNL1        0.1149
      8 C         140.1931  140.3198  158.9934 C.3     1  UNL1        0.1141
      9 C         138.0638  141.2016  153.6910 C.3     1  UNL1        0.0398
     10 C         137.7770  140.9082  155.1338 C.ar    1  UNL1        0.0319
     11 S         138.7981  140.7456  156.2204 S.2     1  UNL1       -0.0560
     12 C         138.0708  140.4628  157.5015 C.ar    1  UNL1        0.1628
     13 N         136.6002  140.4505  157.2066 N.ar    1  UNL1       -0.2204
     14 C         136.4185  140.7258  155.7433 C.ar    1  UNL1        0.1565
     15 C         135.1084  140.8048  155.0170 C.3     1  UNL1        0.4351
     16 F         133.7984  140.8838  154.2907 F       1  UNL1       -0.1644
     17 F         135.1833  142.3027  155.0450 F       1  UNL1       -0.1644
     18 F         135.0336  139.3069  154.9890 F       1  UNL1       -0.1644
     19 C         139.7432  139.2247  164.0529 C.3     1  UNL1        0.0853
     20 C         139.4124  137.7986  164.3798 C.3     1  UNL1        0.0096
     21 C         138.5550  137.4813  165.5690 C.3     1  UNL1        0.0005
     22 C         138.0284  138.5899  166.4313 C.3     1  UNL1        0.0005
     23 C         138.3592  140.0160  166.1043 C.3     1  UNL1        0.0096
     24 C         139.2166  140.3334  164.9152 C.3     1  UNL1        0.0851
     25 C         139.5474  141.7595  164.5882 C.2     1  UNL1        0.2231
     26 O         140.8881  142.3220  164.9574 O.2     1  UNL1       -0.2751
     27 N         138.5376  142.6230  163.8921 N.am    1  UNL1       -0.2959
     28 H         137.6577  142.2538  163.6498 H       1  UNL1        0.1502
     29 C         138.8684  144.0491  163.5652 C.3     1  UNL1        0.1364
     30 C         139.3030  145.2508  162.7797 C.3     1  UNL1        0.0353
     31 C         139.2820  143.8984  162.1312 C.3     1  UNL1        0.0353
     32 C         138.5698  144.6951  164.8856 C.1     1  UNL1        0.0896
     33 N         138.2713  145.3411  166.2060 N.1     1  UNL1       -0.1943
@<TRIPOS>BOND
     1     9    10    1
     2    10    11   ar
     3    11    12   ar
     4    12     1    1
     5     1     2    1
     6     2     3    1
     7     3     4    1
     8     4     5   am
     9     5     6    2
    10    19     5    1
    11    19    20    1
    12    20    21    1
    13    21    22    1
    14    22    23    1
    15    23    24    1
    16    24    25    1
    17    25    26    2
    18    25    27   am
    19    27    29    1
    20    29    32    1
    21    32    33    3
    22    29    30    1
    23    30    31    1
    24     4     7    1
    25     7     8    1
    26    12    13   ar
    27    13    14   ar
    28    14    15    1
    29    15    16    1
    30    15    17    1
    31    15    18    1
    32    14    10   ar
    33     8     1    1
    34    24    19    1
    35    31    29    1
    36    27    28    1
@<TRIPOS>MOLECULE
*****
 33 36 0 0 0
SMALL
GASTEIGER

@<TRIPOS>ATOM
      1 N         139.9021  138.9694  159.9204 N.pl3   1  UNL1       -0.2847
      2 C         140.0382  140.4157  160.2940 C.3     1  UNL1        0.1141
      3 C         139.6372  140.8773  161.6637 C.3     1  UNL1        0.1149
      4 N         139.1002  139.8927  162.6597 N.am    1  UNL1       -0.2760
      5 C         138.6992  140.3544  164.0295 C.2     1  UNL1        0.2257
      6 O         138.1622  139.3698  165.0255 O.2     1  UNL1       -0.2749
      7 C         138.9641  138.4464  162.2861 C.3     1  UNL1        0.1149
      8 C         139.3651  137.9847  160.9164 C.3     1  UNL1        0.1141
      9 C         142.8067  137.7381  155.6861 C.3     1  UNL1        0.0398
     10 C         141.6382  137.9417  156.6044 C.ar    1  UNL1        0.0319
     11 S         141.7006  138.4701  158.0068 S.2     1  UNL1       -0.0560
     12 C         140.3031  138.5076  158.5506 C.ar    1  UNL1        0.1628
     13 N         139.3770  138.0024  157.4843 N.ar    1  UNL1       -0.2204
     14 C         140.2021  137.6526  156.2815 C.ar    1  UNL1        0.1565
     15 C         139.6824  137.1092  154.9835 C.3     1  UNL1        0.4351
     16 F         139.1628  136.5657  153.6856 F       1  UNL1       -0.1644
     17 F         140.1946  135.7474  155.3486 F       1  UNL1       -0.1644
     18 F         139.1703  138.4709  154.6184 F       1  UNL1       -0.1644
     19 C         138.8353  141.8007  164.4031 C.3     1  UNL1        0.0853
     20 C         137.6491  142.7141  164.3103 C.3     1  UNL1        0.0096
     21 C         137.7852  144.1605  164.6840 C.3     1  UNL1        0.0005
     22 C         139.1075  144.6934  165.1504 C.3     1  UNL1        0.0005
     23 C         140.2937  143.7800  165.2432 C.3     1  UNL1        0.0096
     24 C         140.1576  142.3337  164.8695 C.3     1  UNL1        0.0851
     25 C         141.3438  141.4203  164.9623 C.2     1  UNL1        0.2231
     26 O         141.4930  140.5018  166.1389 O.2     1  UNL1       -0.2751
     27 N         142.3808  141.4253  163.8785 N.am    1  UNL1       -0.2959
     28 H         142.2829  142.0280  163.1063 H       1  UNL1        0.1502
     29 C         143.5670  140.5118  163.9713 C.3     1  UNL1        0.1364
     30 C         144.9669  140.0418  164.2346 C.3     1  UNL1        0.0353
     31 C         144.5943  141.4713  164.4947 C.3     1  UNL1        0.0353
     32 C         142.9517  139.2351  163.4801 C.1     1  UNL1        0.0896
     33 N         142.3363  137.9584  162.9889 N.1     1  UNL1       -0.1943
@<TRIPOS>BOND
     1     9    10    1
     2    10    11   ar
     3    11    12   ar
     4    12     1    1
     5     1     2    1
     6     2     3    1
     7     3     4    1
     8     4     5   am
     9     5     6    2
    10    19     5    1
    11    19    20    1
    12    20    21    1
    13    21    22    1
    14    22    23    1
    15    23    24    1
    16    24    25    1
    17    25    26    2
    18    25    27   am
    19    27    29    1
    20    29    32    1
    21    32    33    3
    22    29    30    1
    23    30    31    1
    24     4     7    1
    25     7     8    1
    26    12    13   ar
    27    13    14   ar
    28    14    15    1
    29    15    16    1
    30    15    17    1
    31    15    18    1
    32    14    10   ar
    33     8     1    1
    34    24    19    1
    35    31    29    1
    36    27    28    1
@<TRIPOS>MOLECULE
*****
 33 36 0 0 0
SMALL
GASTEIGER

@<TRIPOS>ATOM
      1 N         142.6059  138.5619  159.5351 N.pl3   1  UNL1       -0.2847
      2 C         142.0819  138.1823  160.8883 C.3     1  UNL1        0.1141
      3 C         142.6509  138.8227  162.1195 C.3     1  UNL1        0.1149
      4 N         143.7439  139.8427  161.9976 N.am    1  UNL1       -0.2760
      5 C         144.3130  140.4831  163.2289 C.2     1  UNL1        0.2257
      6 O         145.4060  141.5031  163.1069 O.2     1  UNL1       -0.2749
      7 C         144.2679  140.2223  160.6443 C.3     1  UNL1        0.1149
      8 C         143.6989  139.5819  159.4131 C.3     1  UNL1        0.1141
      9 C         139.2712  137.1538  155.6908 C.3     1  UNL1        0.0398
     10 C         140.5040  137.2743  156.5367 C.ar    1  UNL1        0.0319
     11 S         140.6391  138.0923  157.7867 S.2     1  UNL1       -0.0560
     12 C         142.0368  137.9215  158.3037 C.ar    1  UNL1        0.1628
     13 N         142.7656  136.9979  157.3732 N.ar    1  UNL1       -0.2204
     14 C         141.8183  136.5979  156.2811 C.ar    1  UNL1        0.1565
     15 C         142.1304  135.6822  155.1348 C.3     1  UNL1        0.4351
     16 F         142.4425  134.7666  153.9884 F       1  UNL1       -0.1644
     17 F         142.8279  136.8059  154.4271 F       1  UNL1       -0.1644
     18 F         141.4328  134.5585  155.8424 F       1  UNL1       -0.1644
     19 C         143.7890  140.1035  164.5822 C.3     1  UNL1        0.0853
     20 C         144.1249  138.7640  165.1678 C.3     1  UNL1        0.0096
     21 C         143.6009  138.3844  166.5211 C.3     1  UNL1        0.0005
     22 C         142.7410  139.3443  167.2887 C.3     1  UNL1        0.0005
     23 C         142.4050  140.6838  166.7030 C.3     1  UNL1        0.0096
     24 C         142.9290  141.0634  165.3498 C.3     1  UNL1        0.0851
     25 C         142.5931  142.4028  164.7641 C.2     1  UNL1        0.2231
     26 O         143.4840  143.5808  165.0264 O.2     1  UNL1       -0.2751
     27 N         141.3664  142.5643  163.9162 N.am    1  UNL1       -0.2959
     28 H         140.7817  141.7911  163.7440 H       1  UNL1        0.1502
     29 C         141.0305  143.9038  163.3305 C.3     1  UNL1        0.1364
     30 C         140.3675  145.2371  163.1503 C.3     1  UNL1        0.0353
     31 C         139.9721  144.3516  164.2945 C.3     1  UNL1        0.0353
     32 C         141.9721  143.9212  162.1631 C.1     1  UNL1        0.0896
     33 N         142.9138  143.9385  160.9956 N.1     1  UNL1       -0.1943
@<TRIPOS>BOND
     1     9    10    1
     2    10    11   ar
     3    11    12   ar
     4    12     1    1
     5     1     2    1
     6     2     3    1
     7     3     4    1
     8     4     5   am
     9     5     6    2
    10    19     5    1
    11    19    20    1
    12    20    21    1
    13    21    22    1
    14    22    23    1
    15    23    24    1
    16    24    25    1
    17    25    26    2
    18    25    27   am
    19    27    29    1
    20    29    32    1
    21    32    33    3
    22    29    30    1
    23    30    31    1
    24     4     7    1
    25     7     8    1
    26    12    13   ar
    27    13    14   ar
    28    14    15    1
    29    15    16    1
    30    15    17    1
    31    15    18    1
    32    14    10   ar
    33     8     1    1
    34    24    19    1
    35    31    29    1
    36    27    28    1
