@<TRIPOS>MOLECULE
*****
 25 28 0 0 0
SMALL
GASTEIGER

@<TRIPOS>ATOM
      1 O         142.3142  141.1611  161.6086 O.2     1  UNL1       -0.2523
      2 C         143.4627  140.8963  162.5364 C.2     1  UNL1        0.3076
      3 N         144.6248  141.8118  162.7847 N.am    1  UNL1       -0.2609
      4 C         145.5311  141.1508  163.7806 C.3     1  UNL1        0.1165
      5 C         144.9291  139.8268  164.1478 C.3     1  UNL1        0.1168
      6 N         143.6508  139.6695  163.3789 N.am    1  UNL1       -0.2582
      7 C         144.8423  143.1527  162.1487 C.3     1  UNL1        0.1123
      8 C         144.1435  144.3632  162.6931 C.3     1  UNL1        0.0944
      9 N         142.6858  144.2950  163.0401 N.3     1  UNL1       -0.2637
     10 C         141.5450  144.6270  162.1244 C.3     1  UNL1        0.0992
     11 C         140.2671  144.4200  162.8821 C.ar    1  UNL1       -0.0088
     12 C         138.8292  144.5909  162.4906 C.ar    1  UNL1       -0.0032
     13 C         137.7423  144.3019  163.4831 C.ar    1  UNL1       -0.0003
     14 C         138.0933  143.8420  164.8671 C.ar    1  UNL1       -0.0003
     15 C         139.5312  143.6711  165.2585 C.ar    1  UNL1       -0.0032
     16 C         140.6181  143.9601  164.2660 C.ar    1  UNL1       -0.0088
     17 C         142.1129  143.8828  164.3637 C.3     1  UNL1        0.0992
     18 C         142.7235  138.4923  163.4414 C.3     1  UNL1        0.1217
     19 C         141.4720  138.5662  164.2650 C.ar    1  UNL1       -0.0022
     20 C         140.4860  137.4363  164.2340 C.ar    1  UNL1       -0.0017
     21 C         139.2344  137.5102  165.0576 C.ar    1  UNL1        0.0111
     22 C         138.9691  138.7140  165.9122 C.ar    1  UNL1        0.0577
     23 CL        137.7175  138.7880  166.7359 Cl      1  UNL1       -0.0822
     24 C         139.9551  139.8440  165.9433 C.ar    1  UNL1        0.0111
     25 C         141.2066  139.7700  165.1196 C.ar    1  UNL1       -0.0017
@<TRIPOS>BOND
     1     1     2    2
     2     2     3   am
     3     3     7    1
     4     7     8    1
     5     8     9    1
     6     9    10    1
     7    10    11    1
     8    11    12   ar
     9    12    13   ar
    10    13    14   ar
    11    14    15   ar
    12    15    16   ar
    13    16    17    1
    14     3     4    1
    15     4     5    1
    16     5     6    1
    17     6    18    1
    18    18    19    1
    19    19    20   ar
    20    20    21   ar
    21    21    22   ar
    22    22    23    1
    23    22    24   ar
    24    24    25   ar
    25     6     2   am
    26    25    19   ar
    27    17     9    1
    28    16    11   ar
@<TRIPOS>MOLECULE
*****
 25 28 0 0 0
SMALL
GASTEIGER

@<TRIPOS>ATOM
      1 O         143.7651  142.0336  165.8522 O.2     1  UNL1       -0.2523
      2 C         144.0117  141.1595  164.6585 C.2     1  UNL1        0.3076
      3 N         144.4414  141.6247  163.2987 N.am    1  UNL1       -0.2609
      4 C         144.5672  140.4193  162.4148 C.3     1  UNL1        0.1165
      5 C         144.2152  139.2092  163.2283 C.3     1  UNL1        0.1168
      6 N         143.8719  139.6666  164.6150 N.am    1  UNL1       -0.2582
      7 C         144.6999  143.0457  162.8940 C.3     1  UNL1        0.1123
      8 C         143.5955  143.8694  162.3009 C.3     1  UNL1        0.0944
      9 N         142.2071  143.7769  162.8611 N.3     1  UNL1       -0.2637
     10 C         141.5363  144.8003  163.7286 C.3     1  UNL1        0.0992
     11 C         140.1604  144.3006  164.0557 C.ar    1  UNL1       -0.0088
     12 C         139.0478  144.8866  164.8735 C.ar    1  UNL1       -0.0032
     13 C         137.7556  144.1404  165.0259 C.ar    1  UNL1       -0.0003
     14 C         137.5759  142.8081  164.3604 C.ar    1  UNL1       -0.0003
     15 C         138.6885  142.2221  163.5427 C.ar    1  UNL1       -0.0032
     16 C         139.9807  142.9684  163.3903 C.ar    1  UNL1       -0.0088
     17 C         141.2456  142.6447  162.6520 C.3     1  UNL1        0.0992
     18 C         143.4610  138.7859  165.7574 C.3     1  UNL1        0.1217
     19 C         142.3793  139.2312  166.6964 C.ar    1  UNL1       -0.0022
     20 C         141.0036  139.5196  166.1730 C.ar    1  UNL1       -0.0017
     21 C         139.9219  139.9649  167.1119 C.ar    1  UNL1        0.0111
     22 C         140.2160  140.1218  168.5744 C.ar    1  UNL1        0.0577
     23 CL        139.1343  140.5672  169.5134 Cl      1  UNL1       -0.0822
     24 C         141.5918  139.8334  169.0980 C.ar    1  UNL1        0.0111
     25 C         142.6735  139.3881  168.1589 C.ar    1  UNL1       -0.0017
@<TRIPOS>BOND
     1     1     2    2
     2     2     3   am
     3     3     7    1
     4     7     8    1
     5     8     9    1
     6     9    10    1
     7    10    11    1
     8    11    12   ar
     9    12    13   ar
    10    13    14   ar
    11    14    15   ar
    12    15    16   ar
    13    16    17    1
    14     3     4    1
    15     4     5    1
    16     5     6    1
    17     6    18    1
    18    18    19    1
    19    19    20   ar
    20    20    21   ar
    21    21    22   ar
    22    22    23    1
    23    22    24   ar
    24    24    25   ar
    25     6     2   am
    26    25    19   ar
    27    17     9    1
    28    16    11   ar
@<TRIPOS>MOLECULE
*****
 25 28 0 0 0
SMALL
GASTEIGER

@<TRIPOS>ATOM
      1 O         140.3752  144.0760  165.0708 O.2     1  UNL1       -0.2523
      2 C         141.1680  143.5560  163.9085 C.2     1  UNL1        0.3076
      3 N         140.7046  143.4916  162.4834 N.am    1  UNL1       -0.2609
      4 C         141.8137  142.9049  161.6613 C.3     1  UNL1        0.1165
      5 C         142.9626  142.6068  162.5785 C.3     1  UNL1        0.1168
      6 N         142.5636  143.0092  163.9673 N.am    1  UNL1       -0.2582
      7 C         139.3669  143.9359  161.9703 C.3     1  UNL1        0.1123
      8 C         138.1475  143.1039  162.2365 C.3     1  UNL1        0.0944
      9 N         138.2619  141.8396  163.0354 N.3     1  UNL1       -0.2637
     10 C         137.9342  141.6835  164.4908 C.3     1  UNL1        0.0992
     11 C         138.1939  140.2567  164.8741 C.ar    1  UNL1       -0.0088
     12 C         138.0489  139.5246  166.1752 C.ar    1  UNL1       -0.0032
     13 C         138.3922  138.0668  166.2578 C.ar    1  UNL1       -0.0003
     14 C         138.8804  137.3411  165.0392 C.ar    1  UNL1       -0.0003
     15 C         139.0254  138.0731  163.7381 C.ar    1  UNL1       -0.0032
     16 C         138.6822  139.5310  163.6555 C.ar    1  UNL1       -0.0088
     17 C         138.7242  140.5092  162.5192 C.3     1  UNL1        0.0992
     18 C         143.4112  142.8863  165.1986 C.3     1  UNL1        0.1217
     19 C         142.9762  141.9934  166.3227 C.ar    1  UNL1       -0.0022
     20 C         143.2736  142.3757  167.7422 C.ar    1  UNL1       -0.0017
     21 C         142.8386  141.4829  168.8664 C.ar    1  UNL1        0.0111
     22 C         142.1060  140.2077  168.5708 C.ar    1  UNL1        0.0577
     23 CL        141.6709  139.3148  169.6948 Cl      1  UNL1       -0.0822
     24 C         141.8085  139.8254  167.1511 C.ar    1  UNL1        0.0111
     25 C         142.2436  140.7183  166.0271 C.ar    1  UNL1       -0.0017
@<TRIPOS>BOND
     1     1     2    2
     2     2     3   am
     3     3     7    1
     4     7     8    1
     5     8     9    1
     6     9    10    1
     7    10    11    1
     8    11    12   ar
     9    12    13   ar
    10    13    14   ar
    11    14    15   ar
    12    15    16   ar
    13    16    17    1
    14     3     4    1
    15     4     5    1
    16     5     6    1
    17     6    18    1
    18    18    19    1
    19    19    20   ar
    20    20    21   ar
    21    21    22   ar
    22    22    23    1
    23    22    24   ar
    24    24    25   ar
    25     6     2   am
    26    25    19   ar
    27    17     9    1
    28    16    11   ar
@<TRIPOS>MOLECULE
*****
 25 28 0 0 0
SMALL
GASTEIGER

@<TRIPOS>ATOM
      1 O         138.4189  144.5710  162.4617 O.2     1  UNL1       -0.2523
      2 C         138.7335  143.2928  161.7426 C.2     1  UNL1        0.3076
      3 N         139.4769  143.1708  160.4455 N.am    1  UNL1       -0.2609
      4 C         139.5628  141.7147  160.0956 C.3     1  UNL1        0.1165
      5 C         138.8725  140.9368  161.1765 C.3     1  UNL1        0.1168
      6 N         138.3600  141.9121  162.1944 N.am    1  UNL1       -0.2582
      7 C         140.0362  144.3057  159.6397 C.3     1  UNL1        0.1123
      8 C         141.2460  145.0466  160.1268 C.3     1  UNL1        0.0944
      9 N         142.2094  144.3773  161.0617 N.3     1  UNL1       -0.2637
     10 C         143.2100  143.3232  160.6907 C.3     1  UNL1        0.0992
     11 C         143.9602  142.9390  161.9315 C.ar    1  UNL1       -0.0088
     12 C         145.0629  141.9511  162.1722 C.ar    1  UNL1       -0.0032
     13 C         145.6287  141.7799  163.5508 C.ar    1  UNL1       -0.0003
     14 C         145.0918  142.5966  164.6886 C.ar    1  UNL1       -0.0003
     15 C         143.9892  143.5846  164.4479 C.ar    1  UNL1       -0.0032
     16 C         143.4234  143.7558  163.0693 C.ar    1  UNL1       -0.0088
     17 C         142.3413  144.6447  162.5318 C.3     1  UNL1        0.0992
     18 C         137.6063  141.5672  163.4446 C.3     1  UNL1        0.1217
     19 C         138.3524  141.2009  164.6932 C.ar    1  UNL1       -0.0022
     20 C         138.1174  139.8701  165.3442 C.ar    1  UNL1       -0.0017
     21 C         138.8635  139.5037  166.5928 C.ar    1  UNL1        0.0111
     22 C         139.8446  140.4682  167.1905 C.ar    1  UNL1        0.0577
     23 CL        140.5908  140.1019  168.4392 Cl      1  UNL1       -0.0822
     24 C         140.0797  141.7991  166.5396 C.ar    1  UNL1        0.0111
     25 C         139.3335  142.1654  165.2909 C.ar    1  UNL1       -0.0017
@<TRIPOS>BOND
     1     1     2    2
     2     2     3   am
     3     3     7    1
     4     7     8    1
     5     8     9    1
     6     9    10    1
     7    10    11    1
     8    11    12   ar
     9    12    13   ar
    10    13    14   ar
    11    14    15   ar
    12    15    16   ar
    13    16    17    1
    14     3     4    1
    15     4     5    1
    16     5     6    1
    17     6    18    1
    18    18    19    1
    19    19    20   ar
    20    20    21   ar
    21    21    22   ar
    22    22    23    1
    23    22    24   ar
    24    24    25   ar
    25     6     2   am
    26    25    19   ar
    27    17     9    1
    28    16    11   ar
@<TRIPOS>MOLECULE
*****
 25 28 0 0 0
SMALL
GASTEIGER

@<TRIPOS>ATOM
      1 O         141.1579  139.3726  161.3044 O.2     1  UNL1       -0.2523
      2 C         140.6017  138.7250  162.5379 C.2     1  UNL1        0.3076
      3 N         139.2287  138.1388  162.6832 N.am    1  UNL1       -0.2609
      4 C         139.0993  137.6015  164.0778 C.3     1  UNL1        0.1165
      5 C         140.3925  137.8558  164.7942 C.3     1  UNL1        0.1168
      6 N         141.3210  138.5501  163.8425 N.am    1  UNL1       -0.2582
      7 C         138.1708  138.0971  161.6207 C.3     1  UNL1        0.1123
      8 C         137.4897  139.3624  161.1903 C.3     1  UNL1        0.0944
      9 N         137.8557  140.6672  161.8334 N.3     1  UNL1       -0.2637
     10 C         137.4731  141.1069  163.2155 C.3     1  UNL1        0.0992
     11 C         138.0494  142.4729  163.4436 C.ar    1  UNL1       -0.0088
     12 C         137.9970  143.4006  164.6211 C.ar    1  UNL1       -0.0032
     13 C         138.6833  144.7329  164.5573 C.ar    1  UNL1       -0.0003
     14 C         139.4220  145.1374  163.3161 C.ar    1  UNL1       -0.0003
     15 C         139.4745  144.2096  162.1387 C.ar    1  UNL1       -0.0032
     16 C         138.7882  142.8774  162.2024 C.ar    1  UNL1       -0.0088
     17 C         138.6684  141.7614  161.2073 C.3     1  UNL1        0.0992
     18 C         142.7226  138.9920  164.1428 C.3     1  UNL1        0.1217
     19 C         143.0480  140.4543  164.2187 C.ar    1  UNL1       -0.0022
     20 C         144.4766  140.9083  164.1677 C.ar    1  UNL1       -0.0017
     21 C         144.8022  142.3706  164.2436 C.ar    1  UNL1        0.0111
     22 C         143.6989  143.3788  164.3705 C.ar    1  UNL1        0.0577
     23 CL        144.0243  144.8412  164.4464 Cl      1  UNL1       -0.0822
     24 C         142.2701  142.9249  164.4214 C.ar    1  UNL1        0.0111
     25 C         141.9447  141.4625  164.3455 C.ar    1  UNL1       -0.0017
@<TRIPOS>BOND
     1     1     2    2
     2     2     3   am
     3     3     7    1
     4     7     8    1
     5     8     9    1
     6     9    10    1
     7    10    11    1
     8    11    12   ar
     9    12    13   ar
    10    13    14   ar
    11    14    15   ar
    12    15    16   ar
    13    16    17    1
    14     3     4    1
    15     4     5    1
    16     5     6    1
    17     6    18    1
    18    18    19    1
    19    19    20   ar
    20    20    21   ar
    21    21    22   ar
    22    22    23    1
    23    22    24   ar
    24    24    25   ar
    25     6     2   am
    26    25    19   ar
    27    17     9    1
    28    16    11   ar
@<TRIPOS>MOLECULE
*****
 25 28 0 0 0
SMALL
GASTEIGER

@<TRIPOS>ATOM
      1 O         139.3617  138.2776  164.9968 O.2     1  UNL1       -0.2523
      2 C         140.3052  138.1755  163.8351 C.2     1  UNL1        0.3076
      3 N         139.9174  138.1093  162.3876 N.am    1  UNL1       -0.2609
      4 C         141.1747  138.0146  161.5748 C.3     1  UNL1        0.1165
      5 C         142.3393  138.0222  162.5202 C.3     1  UNL1        0.1168
      6 N         141.8020  138.1217  163.9171 N.am    1  UNL1       -0.2582
      7 C         138.5182  138.1336  161.8476 C.3     1  UNL1        0.1123
      8 C         137.8735  139.4408  161.4935 C.3     1  UNL1        0.0944
      9 N         138.2499  140.6883  162.2366 N.3     1  UNL1       -0.2637
     10 C         139.5541  141.4210  162.1259 C.3     1  UNL1        0.0992
     11 C         139.4983  142.6076  163.0418 C.ar    1  UNL1       -0.0088
     12 C         140.4936  143.6876  163.3470 C.ar    1  UNL1       -0.0032
     13 C         140.1502  144.7682  164.3289 C.ar    1  UNL1       -0.0003
     14 C         138.8115  144.7689  165.0057 C.ar    1  UNL1       -0.0003
     15 C         137.8163  143.6889  164.7005 C.ar    1  UNL1       -0.0032
     16 C         138.1597  142.6083  163.7186 C.ar    1  UNL1       -0.0088
     17 C         137.3881  141.4221  163.2210 C.3     1  UNL1        0.0992
     18 C         142.6181  138.1605  165.1749 C.3     1  UNL1        0.1217
     19 C         142.4887  139.3201  166.1175 C.ar    1  UNL1       -0.0022
     20 C         142.7627  139.1320  167.5801 C.ar    1  UNL1       -0.0017
     21 C         142.6333  140.2916  168.5227 C.ar    1  UNL1        0.0111
     22 C         142.2299  141.6395  168.0025 C.ar    1  UNL1        0.0577
     23 CL        142.1005  142.7992  168.9451 Cl      1  UNL1       -0.0822
     24 C         141.9559  141.8277  166.5398 C.ar    1  UNL1        0.0111
     25 C         142.0853  140.6680  165.5973 C.ar    1  UNL1       -0.0017
@<TRIPOS>BOND
     1     1     2    2
     2     2     3   am
     3     3     7    1
     4     7     8    1
     5     8     9    1
     6     9    10    1
     7    10    11    1
     8    11    12   ar
     9    12    13   ar
    10    13    14   ar
    11    14    15   ar
    12    15    16   ar
    13    16    17    1
    14     3     4    1
    15     4     5    1
    16     5     6    1
    17     6    18    1
    18    18    19    1
    19    19    20   ar
    20    20    21   ar
    21    21    22   ar
    22    22    23    1
    23    22    24   ar
    24    24    25   ar
    25     6     2   am
    26    25    19   ar
    27    17     9    1
    28    16    11   ar
@<TRIPOS>MOLECULE
*****
 25 28 0 0 0
SMALL
GASTEIGER

@<TRIPOS>ATOM
      1 O         139.6280  138.4944  165.6853 O.2     1  UNL1       -0.2523
      2 C         140.8318  138.4508  164.7915 C.2     1  UNL1        0.3076
      3 N         140.8298  138.1374  163.3246 N.am    1  UNL1       -0.2609
      4 C         142.2458  138.2059  162.8341 C.3     1  UNL1        0.1165
      5 C         143.1228  138.5615  163.9979 C.3     1  UNL1        0.1168
      6 N         142.2489  138.7129  165.2076 N.am    1  UNL1       -0.2582
      7 C         139.6238  137.8127  162.4939 C.3     1  UNL1        0.1123
      8 C         138.6979  138.9083  162.0556 C.3     1  UNL1        0.0944
      9 N         138.8122  140.2749  162.6634 N.3     1  UNL1       -0.2637
     10 C         137.8142  140.9186  163.5797 C.3     1  UNL1        0.0992
     11 C         138.3297  142.2792  163.9442 C.ar    1  UNL1       -0.0088
     12 C         137.7704  143.3640  164.8161 C.ar    1  UNL1       -0.0032
     13 C         138.5277  144.6461  164.9970 C.ar    1  UNL1       -0.0003
     14 C         139.8443  144.8434  164.3059 C.ar    1  UNL1       -0.0003
     15 C         140.4036  143.7586  163.4340 C.ar    1  UNL1       -0.0032
     16 C         139.6464  142.4765  163.2532 C.ar    1  UNL1       -0.0088
     17 C         139.9445  141.2377  162.4616 C.3     1  UNL1        0.0992
     18 C         142.7110  139.0646  166.5906 C.3     1  UNL1        0.1217
     19 C         142.1151  140.2420  167.3038 C.ar    1  UNL1       -0.0022
     20 C         142.1352  140.2999  168.8024 C.ar    1  UNL1       -0.0017
     21 C         141.5393  141.4772  169.5157 C.ar    1  UNL1        0.0111
     22 C         140.9233  142.5968  168.7301 C.ar    1  UNL1        0.0577
     23 CL        140.3273  143.7743  169.4432 Cl      1  UNL1       -0.0822
     24 C         140.9031  142.5390  167.2313 C.ar    1  UNL1        0.0111
     25 C         141.4991  141.3615  166.5181 C.ar    1  UNL1       -0.0017
@<TRIPOS>BOND
     1     1     2    2
     2     2     3   am
     3     3     7    1
     4     7     8    1
     5     8     9    1
     6     9    10    1
     7    10    11    1
     8    11    12   ar
     9    12    13   ar
    10    13    14   ar
    11    14    15   ar
    12    15    16   ar
    13    16    17    1
    14     3     4    1
    15     4     5    1
    16     5     6    1
    17     6    18    1
    18    18    19    1
    19    19    20   ar
    20    20    21   ar
    21    21    22   ar
    22    22    23    1
    23    22    24   ar
    24    24    25   ar
    25     6     2   am
    26    25    19   ar
    27    17     9    1
    28    16    11   ar
@<TRIPOS>MOLECULE
*****
 25 28 0 0 0
SMALL
GASTEIGER

@<TRIPOS>ATOM
      1 O         140.7688  142.4465  161.5340 O.2     1  UNL1       -0.2523
      2 C         141.4881  143.5217  162.2932 C.2     1  UNL1        0.3076
      3 N         140.9127  144.8431  162.7089 N.am    1  UNL1       -0.2609
      4 C         141.9782  145.6024  163.4428 C.3     1  UNL1        0.1165
      5 C         143.2120  144.7502  163.4806 C.3     1  UNL1        0.1168
      6 N         142.9091  143.4642  162.7701 N.am    1  UNL1       -0.2582
      7 C         139.5170  145.3214  162.4383 C.3     1  UNL1        0.1123
      8 C         138.3506  144.6371  163.0875 C.3     1  UNL1        0.0944
      9 N         138.5809  143.4835  164.0182 N.3     1  UNL1       -0.2637
     10 C         137.9928  142.1103  163.8825 C.3     1  UNL1        0.0992
     11 C         138.4880  141.2786  165.0284 C.ar    1  UNL1       -0.0088
     12 C         138.2403  139.8500  165.4124 C.ar    1  UNL1       -0.0032
     13 C         138.8867  139.2806  166.6404 C.ar    1  UNL1       -0.0003
     14 C         139.7809  140.1398  167.4843 C.ar    1  UNL1       -0.0003
     15 C         140.0286  141.5685  167.1002 C.ar    1  UNL1       -0.0032
     16 C         139.3822  142.1379  165.8723 C.ar    1  UNL1       -0.0088
     17 C         139.4396  143.5006  165.2479 C.3     1  UNL1        0.0992
     18 C         143.8603  142.3216  162.5715 C.3     1  UNL1        0.1217
     19 C         143.8847  141.1869  163.5523 C.ar    1  UNL1       -0.0022
     20 C         145.1463  140.4030  163.7609 C.ar    1  UNL1       -0.0017
     21 C         145.1709  139.2683  164.7416 C.ar    1  UNL1        0.0111
     22 C         143.9336  138.9176  165.5138 C.ar    1  UNL1        0.0577
     23 CL        143.9581  137.7829  166.4946 Cl      1  UNL1       -0.0822
     24 C         142.6719  139.7015  165.3052 C.ar    1  UNL1        0.0111
     25 C         142.6475  140.8362  164.3244 C.ar    1  UNL1       -0.0017
@<TRIPOS>BOND
     1     1     2    2
     2     2     3   am
     3     3     7    1
     4     7     8    1
     5     8     9    1
     6     9    10    1
     7    10    11    1
     8    11    12   ar
     9    12    13   ar
    10    13    14   ar
    11    14    15   ar
    12    15    16   ar
    13    16    17    1
    14     3     4    1
    15     4     5    1
    16     5     6    1
    17     6    18    1
    18    18    19    1
    19    19    20   ar
    20    20    21   ar
    21    21    22   ar
    22    22    23    1
    23    22    24   ar
    24    24    25   ar
    25     6     2   am
    26    25    19   ar
    27    17     9    1
    28    16    11   ar
@<TRIPOS>MOLECULE
*****
 25 28 0 0 0
SMALL
GASTEIGER

@<TRIPOS>ATOM
      1 O         140.5721  138.0172  165.1168 O.2     1  UNL1       -0.2523
      2 C         141.9462  138.4279  164.6772 C.2     1  UNL1        0.3076
      3 N         142.4492  138.4531  163.2643 N.am    1  UNL1       -0.2609
      4 C         143.8725  138.9263  163.2873 C.3     1  UNL1        0.1165
      5 C         144.2491  139.1935  164.7145 C.3     1  UNL1        0.1168
      6 N         143.0586  138.8855  165.5735 N.am    1  UNL1       -0.2582
      7 C         141.6664  138.0721  162.0428 C.3     1  UNL1        0.1123
      8 C         140.6589  139.0246  161.4703 C.3     1  UNL1        0.0944
      9 N         140.2666  140.2521  162.2379 N.3     1  UNL1       -0.2637
     10 C         141.0942  141.4927  162.3999 C.3     1  UNL1        0.0992
     11 C         140.3170  142.4620  163.2404 C.ar    1  UNL1       -0.0088
     12 C         140.6313  143.8458  163.7264 C.ar    1  UNL1       -0.0032
     13 C         139.6376  144.5881  164.5698 C.ar    1  UNL1       -0.0003
     14 C         138.3296  143.9467  164.9273 C.ar    1  UNL1       -0.0003
     15 C         138.0153  142.5629  164.4413 C.ar    1  UNL1       -0.0032
     16 C         139.0090  141.8205  163.5978 C.ar    1  UNL1       -0.0088
     17 C         138.9779  140.4548  162.9783 C.3     1  UNL1        0.0992
     18 C         142.9922  139.0127  167.0665 C.3     1  UNL1        0.1217
     19 C         142.3418  140.2126  167.6889 C.ar    1  UNL1       -0.0022
     20 C         141.2669  140.9515  166.9484 C.ar    1  UNL1       -0.0017
     21 C         140.6164  142.1514  167.5707 C.ar    1  UNL1        0.0111
     22 C         141.0410  142.6122  168.9335 C.ar    1  UNL1        0.0577
     23 CL        140.3906  143.8122  169.5559 Cl      1  UNL1       -0.0822
     24 C         142.1160  141.8733  169.6741 C.ar    1  UNL1        0.0111
     25 C         142.7664  140.6734  169.0517 C.ar    1  UNL1       -0.0017
@<TRIPOS>BOND
     1     1     2    2
     2     2     3   am
     3     3     7    1
     4     7     8    1
     5     8     9    1
     6     9    10    1
     7    10    11    1
     8    11    12   ar
     9    12    13   ar
    10    13    14   ar
    11    14    15   ar
    12    15    16   ar
    13    16    17    1
    14     3     4    1
    15     4     5    1
    16     5     6    1
    17     6    18    1
    18    18    19    1
    19    19    20   ar
    20    20    21   ar
    21    21    22   ar
    22    22    23    1
    23    22    24   ar
    24    24    25   ar
    25     6     2   am
    26    25    19   ar
    27    17     9    1
    28    16    11   ar
