@<TRIPOS>MOLECULE
*****
 30 32 0 0 0
SMALL
GASTEIGER

@<TRIPOS>ATOM
      1 C         143.1496  140.3720  164.4846 C.3     1  UNL1        0.0051
      2 C         142.2693  140.5646  163.2855 C.3     1  UNL1        0.0217
      3 C         142.2572  141.8818  162.5679 C.3     1  UNL1        0.0967
      4 N         143.1253  143.0063  163.0494 N.am    1  UNL1       -0.2460
      5 C         143.1131  144.3234  162.3318 C.2     1  UNL1        0.4052
      6 O         143.9812  145.4479  162.8133 O.2     1  UNL1       -0.2262
      7 C         144.0056  142.8136  164.2486 C.3     1  UNL1        0.0967
      8 C         144.0178  141.4965  164.9662 C.3     1  UNL1        0.0217
      9 C         143.1618  139.0548  165.2023 C.3     1  UNL1        0.0216
     10 C         141.9860  138.6456  166.0389 C.3     1  UNL1        0.0936
     11 C         139.9882  140.2868  166.2950 C.3     1  UNL1        0.1150
     12 N         141.2428  139.6723  166.8412 N.am    1  UNL1       -0.2745
     13 C         141.7541  140.0843  168.1898 C.2     1  UNL1        0.2719
     14 O         143.0087  139.4697  168.7361 O.2     1  UNL1       -0.2705
     15 C         141.0110  141.1108  168.9922 C.3     1  UNL1        0.2842
     16 C         139.9157  140.8348  169.9792 C.2     1  UNL1        0.1183
     17 N         139.4604  142.1471  170.5454 N.am    1  UNL1       -0.1416
     18 C         140.2743  143.2342  169.9084 C.2     1  UNL1        0.4260
     19 O         140.1515  144.7037  170.1831 O.2     1  UNL1       -0.2242
     20 O         141.2326  142.5937  168.9485 O.3     1  UNL1       -0.4215
     21 O         142.2328  144.5161  161.1327 O.3     1  UNL1       -0.4295
     22 C         140.8706  145.1236  161.2921 C.3     1  UNL1        0.2368
     23 C         139.8851  144.5155  162.2454 C.ar    1  UNL1        0.0230
     24 C         139.6525  145.1453  163.5868 C.ar    1  UNL1        0.0108
     25 C         138.6670  144.5372  164.5402 C.ar    1  UNL1        0.0583
     26 CL        138.4345  145.1671  165.8815 Cl      1  UNL1       -0.0822
     27 C         137.9140  143.2993  164.1522 C.ar    1  UNL1        0.0228
     28 C         138.1465  142.6694  162.8109 C.ar    1  UNL1        0.0583
     29 CL        137.3936  141.4315  162.4229 Cl      1  UNL1       -0.0822
     30 C         139.1321  143.2776  161.8575 C.ar    1  UNL1        0.0108
@<TRIPOS>BOND
     1    11    12    1
     2    12    10    1
     3    10     9    1
     4     9     1    1
     5     1     2    1
     6     2     3    1
     7     3     4    1
     8     4     5   am
     9     5     6    2
    10     5    21    1
    11    21    22    1
    12    22    23    1
    13    23    24   ar
    14    24    25   ar
    15    25    26    1
    16    25    27   ar
    17    27    28   ar
    18    28    29    1
    19    28    30   ar
    20     4     7    1
    21     7     8    1
    22    12    13   am
    23    13    14    2
    24    13    15    1
    25    15    16    1
    26    16    17    2
    27    17    18    1
    28    18    19    2
    29    18    20    1
    30     8     1    1
    31    20    15    1
    32    30    23   ar
@<TRIPOS>MOLECULE
*****
 30 32 0 0 0
SMALL
GASTEIGER

@<TRIPOS>ATOM
      1 C         143.2525  140.3514  164.4440 C.3     1  UNL1        0.0051
      2 C         142.3625  140.5285  163.2496 C.3     1  UNL1        0.0217
      3 C         142.3179  141.8474  162.5366 C.3     1  UNL1        0.0967
      4 N         143.1632  142.9892  163.0179 N.am    1  UNL1       -0.2460
      5 C         143.1186  144.3081  162.3048 C.2     1  UNL1        0.4052
      6 O         143.9639  145.4500  162.7862 O.2     1  UNL1       -0.2262
      7 C         144.0532  142.8121  164.2123 C.3     1  UNL1        0.0967
      8 C         144.0978  141.4932  164.9254 C.3     1  UNL1        0.0217
      9 C         143.2971  139.0324  165.1571 C.3     1  UNL1        0.0216
     10 C         142.1914  138.6494  166.0955 C.3     1  UNL1        0.0936
     11 C         142.6704  139.4695  168.5138 C.3     1  UNL1        0.1150
     12 N         141.8533  139.5355  167.2577 N.am    1  UNL1       -0.2745
     13 C         140.6980  140.4876  167.1637 C.2     1  UNL1        0.2719
     14 O         139.8809  140.5536  165.9074 O.2     1  UNL1       -0.2705
     15 C         140.3599  141.3736  168.3258 C.3     1  UNL1        0.2842
     16 C         139.5992  140.9666  169.5529 C.2     1  UNL1        0.1183
     17 N         139.4922  142.1637  170.4503 N.am    1  UNL1       -0.1416
     18 C         140.1868  143.3107  169.7778 C.2     1  UNL1        0.4260
     19 O         140.3214  144.7017  170.3227 O.2     1  UNL1       -0.2242
     20 O         140.7230  142.8224  168.4648 O.3     1  UNL1       -0.4215
     21 O         142.2286  144.4852  161.1104 O.3     1  UNL1       -0.4295
     22 C         140.8682  145.0961  161.2727 C.3     1  UNL1        0.2368
     23 C         139.8862  144.4955  162.2344 C.ar    1  UNL1        0.0230
     24 C         139.1263  143.2589  161.8558 C.ar    1  UNL1        0.0108
     25 C         138.1443  142.6582  162.8175 C.ar    1  UNL1        0.0583
     26 CL        137.3843  141.4217  162.4389 Cl      1  UNL1       -0.0822
     27 C         137.9222  143.2942  164.1578 C.ar    1  UNL1        0.0228
     28 C         138.6822  144.5308  164.5364 C.ar    1  UNL1        0.0583
     29 CL        138.4602  145.1667  165.8766 Cl      1  UNL1       -0.0822
     30 C         139.6642  145.1314  163.5746 C.ar    1  UNL1        0.0108
@<TRIPOS>BOND
     1    11    12    1
     2    12    10    1
     3    10     9    1
     4     9     1    1
     5     1     2    1
     6     2     3    1
     7     3     4    1
     8     4     5   am
     9     5     6    2
    10     5    21    1
    11    21    22    1
    12    22    23    1
    13    23    24   ar
    14    24    25   ar
    15    25    26    1
    16    25    27   ar
    17    27    28   ar
    18    28    29    1
    19    28    30   ar
    20     4     7    1
    21     7     8    1
    22    12    13   am
    23    13    14    2
    24    13    15    1
    25    15    16    1
    26    16    17    2
    27    17    18    1
    28    18    19    2
    29    18    20    1
    30     8     1    1
    31    20    15    1
    32    30    23   ar
@<TRIPOS>MOLECULE
*****
 30 32 0 0 0
SMALL
GASTEIGER

@<TRIPOS>ATOM
      1 C         144.4318  141.5809  164.6059 C.3     1  UNL1        0.0051
      2 C         143.7620  140.2604  164.8459 C.3     1  UNL1        0.0217
      3 C         142.7121  140.1344  165.9097 C.3     1  UNL1        0.0967
      4 N         142.3319  141.3289  166.7335 N.am    1  UNL1       -0.2460
      5 C         141.2819  141.2028  167.7974 C.2     1  UNL1        0.4052
      6 O         140.9018  142.3973  168.6212 O.2     1  UNL1       -0.2262
      7 C         143.0017  142.6494  166.4935 C.3     1  UNL1        0.0967
      8 C         144.0516  142.7754  165.4297 C.3     1  UNL1        0.0217
      9 C         145.4818  141.7070  163.5420 C.3     1  UNL1        0.0216
     10 C         145.0891  142.0654  162.1394 C.3     1  UNL1        0.0936
     11 C         142.6941  141.4654  161.3308 C.3     1  UNL1        0.1150
     12 N         143.6786  142.4772  161.8374 N.am    1  UNL1       -0.2745
     13 C         143.2528  143.9009  162.0421 C.2     1  UNL1        0.2719
     14 O         144.2375  144.9127  162.5488 O.2     1  UNL1       -0.2705
     15 C         141.8425  144.3127  161.7401 C.3     1  UNL1        0.2842
     16 C         141.3410  144.8470  160.4313 C.2     1  UNL1        0.1183
     17 N         139.8745  145.1270  160.5762 N.am    1  UNL1       -0.1416
     18 C         139.4697  144.7658  161.9747 C.2     1  UNL1        0.4260
     19 O         138.0906  144.8866  162.5524 O.2     1  UNL1       -0.2242
     20 O         140.6859  144.2625  162.6940 O.3     1  UNL1       -0.4215
     21 O         140.6122  139.8823  168.0373 O.3     1  UNL1       -0.4295
     22 C         139.2456  139.6216  167.4764 C.3     1  UNL1        0.2368
     23 C         139.0395  139.5822  165.9912 C.ar    1  UNL1        0.0230
     24 C         138.2245  140.6468  165.3186 C.ar    1  UNL1        0.0108
     25 C         138.0184  140.6074  163.8333 C.ar    1  UNL1        0.0583
     26 CL        137.2034  141.6720  163.1608 Cl      1  UNL1       -0.0822
     27 C         138.6274  139.5034  163.0206 C.ar    1  UNL1        0.0228
     28 C         139.4424  138.4389  163.6932 C.ar    1  UNL1        0.0583
     29 CL        140.0514  137.3349  162.8806 Cl      1  UNL1       -0.0822
     30 C         139.6485  138.4783  165.1785 C.ar    1  UNL1        0.0108
@<TRIPOS>BOND
     1    11    12    1
     2    12    10    1
     3    10     9    1
     4     9     1    1
     5     1     2    1
     6     2     3    1
     7     3     4    1
     8     4     5   am
     9     5     6    2
    10     5    21    1
    11    21    22    1
    12    22    23    1
    13    23    24   ar
    14    24    25   ar
    15    25    26    1
    16    25    27   ar
    17    27    28   ar
    18    28    29    1
    19    28    30   ar
    20     4     7    1
    21     7     8    1
    22    12    13   am
    23    13    14    2
    24    13    15    1
    25    15    16    1
    26    16    17    2
    27    17    18    1
    28    18    19    2
    29    18    20    1
    30     8     1    1
    31    20    15    1
    32    30    23   ar
@<TRIPOS>MOLECULE
*****
 30 32 0 0 0
SMALL
GASTEIGER

@<TRIPOS>ATOM
      1 C         137.8553  142.3714  164.0124 C.3     1  UNL1        0.0051
      2 C         138.2896  141.3036  164.9722 C.3     1  UNL1        0.0217
      3 C         138.6611  139.9428  164.4623 C.3     1  UNL1        0.0967
      4 N         138.5983  139.6497  162.9925 N.am    1  UNL1       -0.2460
      5 C         138.9699  138.2888  162.4826 C.2     1  UNL1        0.4052
      6 O         138.9071  137.9958  161.0128 O.2     1  UNL1       -0.2262
      7 C         138.1641  140.7175  162.0327 C.3     1  UNL1        0.0967
      8 C         137.7926  142.0783  162.5427 C.3     1  UNL1        0.0217
      9 C         137.4838  143.7323  164.5224 C.3     1  UNL1        0.0216
     10 C         138.5475  144.7664  164.7436 C.3     1  UNL1        0.0936
     11 C         139.7524  145.5119  162.5659 C.3     1  UNL1        0.1150
     12 N         139.7710  144.7815  163.8759 N.am    1  UNL1       -0.2745
     13 C         141.0130  144.0662  164.3183 C.2     1  UNL1        0.2719
     14 O         141.0315  143.3358  165.6284 O.2     1  UNL1       -0.2705
     15 C         142.2365  144.0812  163.4507 C.3     1  UNL1        0.2842
     16 C         143.3905  145.0320  163.5702 C.2     1  UNL1        0.1183
     17 N         144.3880  144.6866  162.5045 N.am    1  UNL1       -0.1416
     18 C         143.8504  143.5222  161.7264 C.2     1  UNL1        0.4260
     19 O         144.5243  142.8500  160.5671 O.2     1  UNL1       -0.2242
     20 O         142.5207  143.1482  162.3112 O.3     1  UNL1       -0.4215
     21 O         139.4042  137.2211  163.4424 O.3     1  UNL1       -0.4295
     22 C         140.8624  136.9124  163.6113 C.3     1  UNL1        0.2368
     23 C         141.8084  137.9846  164.0646 C.ar    1  UNL1        0.0230
     24 C         141.7594  138.4786  165.4801 C.ar    1  UNL1        0.0108
     25 C         142.7054  139.5508  165.9333 C.ar    1  UNL1        0.0583
     26 CL        142.6565  140.0448  167.3488 Cl      1  UNL1       -0.0822
     27 C         143.7004  140.1290  164.9711 C.ar    1  UNL1        0.0228
     28 C         143.7493  139.6349  163.5557 C.ar    1  UNL1        0.0583
     29 CL        144.7442  140.2131  162.5935 Cl      1  UNL1       -0.0822
     30 C         142.8033  138.5627  163.1024 C.ar    1  UNL1        0.0108
@<TRIPOS>BOND
     1    11    12    1
     2    12    10    1
     3    10     9    1
     4     9     1    1
     5     1     2    1
     6     2     3    1
     7     3     4    1
     8     4     5   am
     9     5     6    2
    10     5    21    1
    11    21    22    1
    12    22    23    1
    13    23    24   ar
    14    24    25   ar
    15    25    26    1
    16    25    27   ar
    17    27    28   ar
    18    28    29    1
    19    28    30   ar
    20     4     7    1
    21     7     8    1
    22    12    13   am
    23    13    14    2
    24    13    15    1
    25    15    16    1
    26    16    17    2
    27    17    18    1
    28    18    19    2
    29    18    20    1
    30     8     1    1
    31    20    15    1
    32    30    23   ar
@<TRIPOS>MOLECULE
*****
 30 32 0 0 0
SMALL
GASTEIGER

@<TRIPOS>ATOM
      1 C         143.4912  143.4633  164.3074 C.3     1  UNL1        0.0051
      2 C         142.3130  142.7550  164.9075 C.3     1  UNL1        0.0217
      3 C         140.9203  143.1569  164.5219 C.3     1  UNL1        0.0967
      4 N         140.7057  144.2670  163.5362 N.am    1  UNL1       -0.2460
      5 C         139.3129  144.6688  163.1506 C.2     1  UNL1        0.4052
      6 O         139.0983  145.7789  162.1649 O.2     1  UNL1       -0.2262
      7 C         141.8839  144.9752  162.9361 C.3     1  UNL1        0.0967
      8 C         143.2766  144.5734  163.3217 C.3     1  UNL1        0.0217
      9 C         144.8840  143.0614  164.6930 C.3     1  UNL1        0.0216
     10 C         145.6017  142.0005  163.9126 C.3     1  UNL1        0.0936
     11 C         144.5556  141.7180  161.5512 C.3     1  UNL1        0.1150
     12 N         144.8530  141.1677  162.9145 N.am    1  UNL1       -0.2745
     13 C         144.4016  139.7847  163.2799 C.2     1  UNL1        0.2719
     14 O         144.6990  139.2344  164.6433 O.2     1  UNL1       -0.2705
     15 C         143.6529  138.9520  162.2820 C.3     1  UNL1        0.2842
     16 C         142.3217  138.2967  162.5024 C.2     1  UNL1        0.1183
     17 N         141.9499  137.5680  161.2450 N.am    1  UNL1       -0.1416
     18 C         143.0514  137.7730  160.2476 C.2     1  UNL1        0.4260
     19 O         143.0931  137.2198  158.8540 O.2     1  UNL1       -0.2242
     20 O         144.1038  138.6284  160.8885 O.3     1  UNL1       -0.4215
     21 O         138.1347  143.9605  163.7507 O.3     1  UNL1       -0.4295
     22 C         137.5204  142.7913  163.0395 C.3     1  UNL1        0.2368
     23 C         137.8893  141.3931  163.4378 C.ar    1  UNL1        0.0230
     24 C         138.0263  140.3267  162.3918 C.ar    1  UNL1        0.0108
     25 C         138.3951  138.9284  162.7901 C.ar    1  UNL1        0.0583
     26 CL        138.5321  137.8621  161.7441 Cl      1  UNL1       -0.0822
     27 C         138.6270  138.5964  164.2344 C.ar    1  UNL1        0.0228
     28 C         138.4900  139.6628  165.2804 C.ar    1  UNL1        0.0583
     29 CL        138.7219  139.3308  166.7247 Cl      1  UNL1       -0.0822
     30 C         138.1211  141.0611  164.8821 C.ar    1  UNL1        0.0108
@<TRIPOS>BOND
     1    11    12    1
     2    12    10    1
     3    10     9    1
     4     9     1    1
     5     1     2    1
     6     2     3    1
     7     3     4    1
     8     4     5   am
     9     5     6    2
    10     5    21    1
    11    21    22    1
    12    22    23    1
    13    23    24   ar
    14    24    25   ar
    15    25    26    1
    16    25    27   ar
    17    27    28   ar
    18    28    29    1
    19    28    30   ar
    20     4     7    1
    21     7     8    1
    22    12    13   am
    23    13    14    2
    24    13    15    1
    25    15    16    1
    26    16    17    2
    27    17    18    1
    28    18    19    2
    29    18    20    1
    30     8     1    1
    31    20    15    1
    32    30    23   ar
@<TRIPOS>MOLECULE
*****
 30 32 0 0 0
SMALL
GASTEIGER

@<TRIPOS>ATOM
      1 C         139.3944  138.3318  163.0250 C.3     1  UNL1        0.0051
      2 C         139.1441  138.7196  164.4522 C.3     1  UNL1        0.0217
      3 C         140.2908  138.8222  165.4136 C.3     1  UNL1        0.0967
      4 N         141.6879  138.5368  164.9479 N.am    1  UNL1       -0.2460
      5 C         142.8346  138.6394  165.9095 C.2     1  UNL1        0.4052
      6 O         144.2317  138.3541  165.4438 O.2     1  UNL1       -0.2262
      7 C         141.9382  138.1490  163.5208 C.3     1  UNL1        0.0967
      8 C         140.7915  138.0464  162.5593 C.3     1  UNL1        0.0217
      9 C         138.2477  138.2292  162.0634 C.3     1  UNL1        0.0216
     10 C         137.8605  139.4139  161.2289 C.3     1  UNL1        0.0936
     11 C         139.8344  140.9764  160.5869 C.3     1  UNL1        0.1150
     12 N         138.5926  140.7136  161.3862 N.am    1  UNL1       -0.2745
     13 C         138.0829  141.7506  162.3427 C.2     1  UNL1        0.2719
     14 O         136.8411  141.4877  163.1420 O.2     1  UNL1       -0.2705
     15 C         138.8150  143.0502  162.5000 C.3     1  UNL1        0.2842
     16 C         139.8788  143.3457  163.5155 C.2     1  UNL1        0.1183
     17 N         140.3331  144.7608  163.3126 N.am    1  UNL1       -0.1416
     18 C         139.5502  145.3398  162.1716 C.2     1  UNL1        0.4260
     19 O         139.6823  146.7317  161.6282 O.2     1  UNL1       -0.2242
     20 O         138.6120  144.2826  161.6694 O.3     1  UNL1       -0.4215
     21 O         142.5843  139.0273  167.3367 O.3     1  UNL1       -0.4295
     22 C         142.6382  140.4705  167.7422 C.3     1  UNL1        0.2368
     23 C         141.5352  141.0582  168.5715 C.ar    1  UNL1        0.0230
     24 C         141.5728  142.5093  168.9496 C.ar    1  UNL1        0.0108
     25 C         140.4697  143.0970  169.7789 C.ar    1  UNL1        0.0583
     26 CL        140.5073  144.5481  170.1570 Cl      1  UNL1       -0.0822
     27 C         139.3290  142.2337  170.2301 C.ar    1  UNL1        0.0228
     28 C         139.2914  140.7826  169.8520 C.ar    1  UNL1        0.0583
     29 CL        138.1508  139.9193  170.3032 Cl      1  UNL1       -0.0822
     30 C         140.3946  140.1949  169.0227 C.ar    1  UNL1        0.0108
@<TRIPOS>BOND
     1    11    12    1
     2    12    10    1
     3    10     9    1
     4     9     1    1
     5     1     2    1
     6     2     3    1
     7     3     4    1
     8     4     5   am
     9     5     6    2
    10     5    21    1
    11    21    22    1
    12    22    23    1
    13    23    24   ar
    14    24    25   ar
    15    25    26    1
    16    25    27   ar
    17    27    28   ar
    18    28    29    1
    19    28    30   ar
    20     4     7    1
    21     7     8    1
    22    12    13   am
    23    13    14    2
    24    13    15    1
    25    15    16    1
    26    16    17    2
    27    17    18    1
    28    18    19    2
    29    18    20    1
    30     8     1    1
    31    20    15    1
    32    30    23   ar
@<TRIPOS>MOLECULE
*****
 30 32 0 0 0
SMALL
GASTEIGER

@<TRIPOS>ATOM
      1 C         144.0480  139.4504  164.0205 C.3     1  UNL1        0.0051
      2 C         143.3547  139.1123  165.3070 C.3     1  UNL1        0.0217
      3 C         141.9707  138.5344  165.2836 C.3     1  UNL1        0.0967
      4 N         141.2801  138.2945  163.9738 N.am    1  UNL1       -0.2460
      5 C         139.8960  137.7166  163.9505 C.2     1  UNL1        0.4052
      6 O         139.2054  137.4767  162.6408 O.2     1  UNL1       -0.2262
      7 C         141.9734  138.6326  162.6874 C.3     1  UNL1        0.0967
      8 C         143.3574  139.2105  162.7108 C.3     1  UNL1        0.0217
      9 C         145.4321  140.0283  164.0438 C.3     1  UNL1        0.0216
     10 C         145.6281  141.5103  163.9210 C.3     1  UNL1        0.0936
     11 C         144.6709  142.6286  161.7801 C.3     1  UNL1        0.1150
     12 N         144.5825  142.3523  163.2518 N.am    1  UNL1       -0.2745
     13 C         143.4484  142.9180  164.0543 C.2     1  UNL1        0.2719
     14 O         143.3600  142.6416  165.5260 O.2     1  UNL1       -0.2705
     15 C         142.4028  143.7599  163.3851 C.3     1  UNL1        0.2842
     16 C         142.1732  145.2249  163.6109 C.2     1  UNL1        0.1183
     17 N         141.0317  145.6551  162.7380 N.am    1  UNL1       -0.1416
     18 C         140.5559  144.4559  161.9727 C.2     1  UNL1        0.4260
     19 O         139.4302  144.4322  160.9816 O.2     1  UNL1       -0.2242
     20 O         141.4033  143.2846  162.3727 O.3     1  UNL1       -0.4215
     21 O         139.2027  137.3785  165.2370 O.3     1  UNL1       -0.4295
     22 C         138.3330  138.3982  165.9107 C.3     1  UNL1        0.2368
     23 C         138.5756  139.8604  165.6806 C.ar    1  UNL1        0.0230
     24 C         137.9233  140.5557  164.5225 C.ar    1  UNL1        0.0108
     25 C         138.1659  142.0179  164.2923 C.ar    1  UNL1        0.0583
     26 CL        137.5137  142.7132  163.1342 Cl      1  UNL1       -0.0822
     27 C         139.0607  142.7850  165.2203 C.ar    1  UNL1        0.0228
     28 C         139.7129  142.0897  166.3784 C.ar    1  UNL1        0.0583
     29 CL        140.6077  142.8567  167.3063 Cl      1  UNL1       -0.0822
     30 C         139.4703  140.6274  166.6085 C.ar    1  UNL1        0.0108
@<TRIPOS>BOND
     1    11    12    1
     2    12    10    1
     3    10     9    1
     4     9     1    1
     5     1     2    1
     6     2     3    1
     7     3     4    1
     8     4     5   am
     9     5     6    2
    10     5    21    1
    11    21    22    1
    12    22    23    1
    13    23    24   ar
    14    24    25   ar
    15    25    26    1
    16    25    27   ar
    17    27    28   ar
    18    28    29    1
    19    28    30   ar
    20     4     7    1
    21     7     8    1
    22    12    13   am
    23    13    14    2
    24    13    15    1
    25    15    16    1
    26    16    17    2
    27    17    18    1
    28    18    19    2
    29    18    20    1
    30     8     1    1
    31    20    15    1
    32    30    23   ar
@<TRIPOS>MOLECULE
*****
 30 32 0 0 0
SMALL
GASTEIGER

@<TRIPOS>ATOM
      1 C         143.8070  141.4137  164.4706 C.3     1  UNL1        0.0051
      2 C         142.8796  140.9559  165.5570 C.3     1  UNL1        0.0217
      3 C         142.0372  139.7310  165.3571 C.3     1  UNL1        0.0967
      4 N         142.1221  138.9640  164.0708 N.am    1  UNL1       -0.2460
      5 C         141.2796  137.7391  163.8710 C.2     1  UNL1        0.4052
      6 O         141.3645  136.9721  162.5847 O.2     1  UNL1       -0.2262
      7 C         143.0494  139.4219  162.9844 C.3     1  UNL1        0.0967
      8 C         143.8919  140.6468  163.1843 C.3     1  UNL1        0.0217
      9 C         144.6494  142.6387  164.6704 C.3     1  UNL1        0.0216
     10 C         144.0773  143.9965  164.3896 C.3     1  UNL1        0.0936
     11 C         141.5113  144.3810  164.2552 C.3     1  UNL1        0.1150
     12 N         142.8243  144.1287  163.5754 N.am    1  UNL1       -0.2745
     13 C         142.8846  144.0085  162.0814 C.2     1  UNL1        0.2719
     14 O         144.1977  143.7561  161.4016 O.2     1  UNL1       -0.2705
     15 C         141.6318  144.1407  161.2672 C.3     1  UNL1        0.2842
     16 C         141.0949  145.4099  160.6750 C.2     1  UNL1        0.1183
     17 N         139.8272  145.0805  159.9440 N.am    1  UNL1       -0.1416
     18 C         139.5805  143.6076  160.0846 C.2     1  UNL1        0.4260
     19 O         138.4219  142.8487  159.5085 O.2     1  UNL1       -0.2242
     20 O         140.6958  143.0268  160.9023 O.3     1  UNL1       -0.4215
     21 O         140.3523  137.2812  164.9574 O.3     1  UNL1       -0.4295
     22 C         138.9105  137.6947  164.9366 C.3     1  UNL1        0.2368
     23 C         138.4821  138.8807  164.1243 C.ar    1  UNL1        0.0230
     24 C         138.1902  138.7220  162.6616 C.ar    1  UNL1        0.0108
     25 C         137.7617  139.9080  161.8493 C.ar    1  UNL1        0.0583
     26 CL        137.4698  139.7493  160.3866 Cl      1  UNL1       -0.0822
     27 C         137.6252  141.2528  162.4998 C.ar    1  UNL1        0.0228
     28 C         137.9172  141.4115  163.9625 C.ar    1  UNL1        0.0583
     29 CL        137.7807  142.7562  164.6130 Cl      1  UNL1       -0.0822
     30 C         138.3456  140.2254  164.7748 C.ar    1  UNL1        0.0108
@<TRIPOS>BOND
     1    11    12    1
     2    12    10    1
     3    10     9    1
     4     9     1    1
     5     1     2    1
     6     2     3    1
     7     3     4    1
     8     4     5   am
     9     5     6    2
    10     5    21    1
    11    21    22    1
    12    22    23    1
    13    23    24   ar
    14    24    25   ar
    15    25    26    1
    16    25    27   ar
    17    27    28   ar
    18    28    29    1
    19    28    30   ar
    20     4     7    1
    21     7     8    1
    22    12    13   am
    23    13    14    2
    24    13    15    1
    25    15    16    1
    26    16    17    2
    27    17    18    1
    28    18    19    2
    29    18    20    1
    30     8     1    1
    31    20    15    1
    32    30    23   ar
@<TRIPOS>MOLECULE
*****
 30 32 0 0 0
SMALL
GASTEIGER

@<TRIPOS>ATOM
      1 C         142.7847  139.1951  162.7643 C.3     1  UNL1        0.0051
      2 C         142.0776  140.4911  162.4991 C.3     1  UNL1        0.0217
      3 C         140.6042  140.4976  162.2181 C.3     1  UNL1        0.0967
      4 N         139.8379  139.2082  162.2023 N.am    1  UNL1       -0.2460
      5 C         138.3644  139.2147  161.9213 C.2     1  UNL1        0.4052
      6 O         137.5982  137.9253  161.9055 O.2     1  UNL1       -0.2262
      7 C         140.5451  137.9122  162.4675 C.3     1  UNL1        0.0967
      8 C         142.0185  137.9057  162.7485 C.3     1  UNL1        0.0217
      9 C         144.2582  139.1885  163.0453 C.3     1  UNL1        0.0216
     10 C         144.7597  139.4904  164.4264 C.3     1  UNL1        0.0936
     11 C         143.6471  138.0684  166.2946 C.3     1  UNL1        0.1150
     12 N         143.8323  139.3853  165.6007 N.am    1  UNL1       -0.2745
     13 C         143.0902  140.5971  166.0811 C.2     1  UNL1        0.2719
     14 O         143.2755  141.9140  165.3872 O.2     1  UNL1       -0.2705
     15 C         142.1629  140.4921  167.2554 C.3     1  UNL1        0.2842
     16 C         142.5013  140.8238  168.6786 C.2     1  UNL1        0.1183
     17 N         141.2819  140.5736  169.5155 N.am    1  UNL1       -0.1416
     18 C         140.1898  140.0872  168.6094 C.2     1  UNL1        0.4260
     19 O         138.7976  139.7163  169.0269 O.2     1  UNL1       -0.2242
     20 O         140.7343  140.0368  167.2127 O.3     1  UNL1       -0.4215
     21 O         137.6573  140.5107  161.6561 O.3     1  UNL1       -0.4295
     22 C         137.1711  141.3480  162.8019 C.3     1  UNL1        0.2368
     23 C         138.0361  142.4441  163.3498 C.ar    1  UNL1        0.0230
     24 C         138.3336  143.6536  162.5138 C.ar    1  UNL1        0.0108
     25 C         139.1986  144.7497  163.0617 C.ar    1  UNL1        0.0583
     26 CL        139.4960  145.9591  162.2258 Cl      1  UNL1       -0.0822
     27 C         139.7661  144.6364  164.4456 C.ar    1  UNL1        0.0228
     28 C         139.4687  143.4270  165.2816 C.ar    1  UNL1        0.0583
     29 CL        140.0362  143.3137  166.6654 Cl      1  UNL1       -0.0822
     30 C         138.6036  142.3308  164.7336 C.ar    1  UNL1        0.0108
@<TRIPOS>BOND
     1    11    12    1
     2    12    10    1
     3    10     9    1
     4     9     1    1
     5     1     2    1
     6     2     3    1
     7     3     4    1
     8     4     5   am
     9     5     6    2
    10     5    21    1
    11    21    22    1
    12    22    23    1
    13    23    24   ar
    14    24    25   ar
    15    25    26    1
    16    25    27   ar
    17    27    28   ar
    18    28    29    1
    19    28    30   ar
    20     4     7    1
    21     7     8    1
    22    12    13   am
    23    13    14    2
    24    13    15    1
    25    15    16    1
    26    16    17    2
    27    17    18    1
    28    18    19    2
    29    18    20    1
    30     8     1    1
    31    20    15    1
    32    30    23   ar
