@<TRIPOS>MOLECULE
*****
 29 32 0 0 0
SMALL
GASTEIGER

@<TRIPOS>ATOM
      1 C         141.5669  143.7251  163.0866 C.ar    1  UNL1        0.0872
      2 C         142.8613  144.0643  163.7644 C.ar    1  UNL1        0.0197
      3 C         143.3156  143.2710  164.9535 C.ar    1  UNL1        0.0030
      4 C         142.4756  142.1384  165.4649 C.ar    1  UNL1        0.0174
      5 C         142.9299  141.3450  166.6541 C.ar    1  UNL1       -0.0027
      6 C         142.0899  140.2123  167.1655 C.ar    1  UNL1       -0.0207
      7 C         140.7955  139.8731  166.4876 C.ar    1  UNL1       -0.0027
      8 C         140.3411  140.6665  165.2984 C.ar    1  UNL1        0.0188
      9 C         141.1812  141.7991  164.7871 C.ar    1  UNL1        0.0812
     10 N         140.7269  142.5924  163.5979 N.ar    1  UNL1       -0.2449
     11 C         140.9251  145.3940  159.6416 C.ar    1  UNL1        0.0821
     12 C         139.9014  146.0846  160.4934 C.ar    1  UNL1        0.0117
     13 C         140.0173  145.5434  161.8875 C.ar    1  UNL1        0.0087
     14 C         141.1125  144.5184  161.8974 C.ar    1  UNL1        0.0472
     15 S         141.6735  144.4262  160.5093 S.2     1  UNL1       -0.0808
     16 C         141.1591  145.6300  158.1788 C.2     1  UNL1        0.2230
     17 N         142.4693  146.1897  157.7096 N.2     1  UNL1       -0.2662
     18 H         142.6228  146.3446  156.7496 H       1  UNL1        0.1899
     19 O         140.0830  145.3063  157.1853 O.2     1  UNL1       -0.4603
     20 C         138.9927  147.2623  155.8679 C.3     1  UNL1        0.0512
     21 C         139.9557  146.1137  155.9277 C.3     1  UNL1        0.2072
     22 C         142.5442  139.4190  168.3546 C.3     1  UNL1        0.0437
     23 C         142.4207  139.9968  169.7334 C.3     1  UNL1        0.0768
     24 N         141.7242  141.3096  169.9368 N.3     1  UNL1       -0.2737
     25 C         142.3889  142.6445  170.0993 C.3     1  UNL1        0.0721
     26 C         141.3163  143.6779  170.2763 C.3     1  UNL1        0.0187
     27 C         139.9886  142.9818  170.2232 C.3     1  UNL1        0.0174
     28 C         140.2408  141.5181  170.0133 C.3     1  UNL1        0.0576
     29 C         139.1933  140.4504  169.9000 C.3     1  UNL1        0.0173
@<TRIPOS>BOND
     1    20    21    1
     2    21    19    1
     3    19    16    1
     4    16    17    2
     5    16    11    1
     6    11    12   ar
     7    12    13   ar
     8    13    14   ar
     9    14     1    1
    10     1     2   ar
    11     2     3   ar
    12     3     4   ar
    13     4     5   ar
    14     5     6   ar
    15     6    22    1
    16    22    23    1
    17    23    24    1
    18    24    25    1
    19    25    26    1
    20    26    27    1
    21    27    28    1
    22    28    29    1
    23     6     7   ar
    24     7     8   ar
    25     8     9   ar
    26     9    10   ar
    27    14    15   ar
    28    15    11   ar
    29    10     1   ar
    30     9     4   ar
    31    28    24    1
    32    17    18    1
@<TRIPOS>MOLECULE
*****
 29 32 0 0 0
SMALL
GASTEIGER

@<TRIPOS>ATOM
      1 C         141.3575  145.1413  159.8903 C.ar    1  UNL1        0.0872
      2 C         140.4466  145.5988  160.9908 C.ar    1  UNL1        0.0197
      3 C         140.7390  145.2200  162.4124 C.ar    1  UNL1        0.0030
      4 C         141.9421  144.3838  162.7335 C.ar    1  UNL1        0.0174
      5 C         142.2344  144.0051  164.1552 C.ar    1  UNL1       -0.0027
      6 C         143.4376  143.1688  164.4764 C.ar    1  UNL1       -0.0207
      7 C         144.3484  142.7114  163.3758 C.ar    1  UNL1       -0.0027
      8 C         144.0561  143.0901  161.9542 C.ar    1  UNL1        0.0188
      9 C         142.8529  143.9263  161.6331 C.ar    1  UNL1        0.0812
     10 N         142.5606  144.3051  160.2115 N.ar    1  UNL1       -0.2449
     11 C         139.9428  146.3621  156.4882 C.ar    1  UNL1        0.0821
     12 C         141.2879  145.8436  156.0735 C.ar    1  UNL1        0.0117
     13 C         141.9815  145.3232  157.2975 C.ar    1  UNL1        0.0087
     14 C         141.0651  145.5201  158.4686 C.ar    1  UNL1        0.0472
     15 S         139.8052  146.1622  157.9684 S.2     1  UNL1       -0.0808
     16 C         138.9158  146.9733  155.5818 C.2     1  UNL1        0.2230
     17 N         137.8873  146.1047  154.9203 N.2     1  UNL1       -0.2662
     18 H         137.2132  146.5058  154.3253 H       1  UNL1        0.1899
     19 O         138.9172  148.4532  155.3369 O.2     1  UNL1       -0.4603
     20 C         140.1651  148.6692  153.0685 C.3     1  UNL1        0.0512
     21 C         139.9981  149.0745  154.5030 C.3     1  UNL1        0.2072
     22 C         143.7299  142.7901  165.8980 C.3     1  UNL1        0.0437
     23 C         142.8020  141.8705  166.6352 C.3     1  UNL1        0.0768
     24 N         142.0362  142.3722  167.8233 N.3     1  UNL1       -0.2737
     25 C         140.5901  142.7706  167.8361 C.3     1  UNL1        0.0721
     26 C         140.2421  143.2083  169.2279 C.3     1  UNL1        0.0187
     27 C         141.4732  143.0805  170.0754 C.3     1  UNL1        0.0174
     28 C         142.5820  142.5638  169.2073 C.3     1  UNL1        0.0576
     29 C         143.9894  142.2872  169.6461 C.3     1  UNL1        0.0173
@<TRIPOS>BOND
     1    20    21    1
     2    21    19    1
     3    19    16    1
     4    16    17    2
     5    16    11    1
     6    11    12   ar
     7    12    13   ar
     8    13    14   ar
     9    14     1    1
    10     1     2   ar
    11     2     3   ar
    12     3     4   ar
    13     4     5   ar
    14     5     6   ar
    15     6    22    1
    16    22    23    1
    17    23    24    1
    18    24    25    1
    19    25    26    1
    20    26    27    1
    21    27    28    1
    22    28    29    1
    23     6     7   ar
    24     7     8   ar
    25     8     9   ar
    26     9    10   ar
    27    14    15   ar
    28    15    11   ar
    29    10     1   ar
    30     9     4   ar
    31    28    24    1
    32    17    18    1
@<TRIPOS>MOLECULE
*****
 29 32 0 0 0
SMALL
GASTEIGER

@<TRIPOS>ATOM
      1 C         140.2523  139.4746  166.3359 C.ar    1  UNL1        0.0872
      2 C         139.2525  138.6513  165.5792 C.ar    1  UNL1        0.0197
      3 C         139.6104  138.0830  164.2380 C.ar    1  UNL1        0.0030
      4 C         140.9680  138.3381  163.6534 C.ar    1  UNL1        0.0174
      5 C         141.3258  137.7699  162.3120 C.ar    1  UNL1       -0.0027
      6 C         142.6835  138.0250  161.7274 C.ar    1  UNL1       -0.0207
      7 C         143.6833  138.8483  162.4842 C.ar    1  UNL1       -0.0027
      8 C         143.3254  139.4165  163.8254 C.ar    1  UNL1        0.0188
      9 C         141.9678  139.1614  164.4100 C.ar    1  UNL1        0.0812
     10 N         141.6099  139.7297  165.7513 N.ar    1  UNL1       -0.2449
     11 C         139.9165  141.3988  169.6900 C.ar    1  UNL1        0.0821
     12 C         138.7710  140.4357  169.7925 C.ar    1  UNL1        0.0117
     13 C         138.7574  139.5977  168.5484 C.ar    1  UNL1        0.0087
     14 C         139.8944  140.0428  167.6772 C.ar    1  UNL1        0.0472
     15 S         140.6108  141.1559  168.3828 S.2     1  UNL1       -0.0808
     16 C         140.3002  142.4246  170.7150 C.2     1  UNL1        0.2230
     17 N         139.2974  143.4440  171.1679 N.2     1  UNL1       -0.2662
     18 H         139.5493  144.1172  171.8406 H       1  UNL1        0.1899
     19 O         141.6869  142.4310  171.2871 O.2     1  UNL1       -0.4603
     20 C         143.8312  142.3690  169.8215 C.3     1  UNL1        0.0512
     21 C         142.7910  143.1491  170.5695 C.3     1  UNL1        0.2072
     22 C         143.0413  137.4567  160.3862 C.3     1  UNL1        0.0437
     23 C         142.5901  138.1484  159.1339 C.3     1  UNL1        0.0768
     24 N         142.7537  139.6331  158.9967 N.3     1  UNL1       -0.2737
     25 C         143.9695  140.3419  158.4775 C.3     1  UNL1        0.0721
     26 C         143.6974  141.8166  158.5144 C.3     1  UNL1        0.0187
     27 C         142.3134  142.0191  159.0564 C.3     1  UNL1        0.0174
     28 C         141.7302  140.6697  159.3544 C.3     1  UNL1        0.0576
     29 C         140.3635  140.4036  159.9122 C.3     1  UNL1        0.0173
@<TRIPOS>BOND
     1    20    21    1
     2    21    19    1
     3    19    16    1
     4    16    17    2
     5    16    11    1
     6    11    12   ar
     7    12    13   ar
     8    13    14   ar
     9    14     1    1
    10     1     2   ar
    11     2     3   ar
    12     3     4   ar
    13     4     5   ar
    14     5     6   ar
    15     6    22    1
    16    22    23    1
    17    23    24    1
    18    24    25    1
    19    25    26    1
    20    26    27    1
    21    27    28    1
    22    28    29    1
    23     6     7   ar
    24     7     8   ar
    25     8     9   ar
    26     9    10   ar
    27    14    15   ar
    28    15    11   ar
    29    10     1   ar
    30     9     4   ar
    31    28    24    1
    32    17    18    1
@<TRIPOS>MOLECULE
*****
 29 32 0 0 0
SMALL
GASTEIGER

@<TRIPOS>ATOM
      1 C         141.4062  139.5279  165.6569 C.ar    1  UNL1        0.0872
      2 C         142.4610  140.1179  164.7684 C.ar    1  UNL1        0.0197
      3 C         142.3071  140.0548  163.2777 C.ar    1  UNL1        0.0030
      4 C         141.0984  139.4018  162.6754 C.ar    1  UNL1        0.0174
      5 C         140.9446  139.3387  161.1846 C.ar    1  UNL1       -0.0027
      6 C         139.7359  138.6857  160.5824 C.ar    1  UNL1       -0.0207
      7 C         138.6811  138.0957  161.4709 C.ar    1  UNL1       -0.0027
      8 C         138.8350  138.1588  162.9616 C.ar    1  UNL1        0.0188
      9 C         140.0437  138.8118  163.5639 C.ar    1  UNL1        0.0812
     10 N         140.1976  138.8749  165.0546 N.ar    1  UNL1       -0.2449
     11 C         141.0888  139.9271  169.5047 C.ar    1  UNL1        0.0821
     12 C         142.5050  139.4488  169.3787 C.ar    1  UNL1        0.0117
     13 C         142.7962  139.2410  167.9220 C.ar    1  UNL1        0.0087
     14 C         141.5601  139.5910  167.1477 C.ar    1  UNL1        0.0472
     15 S         140.5049  140.0150  168.1258 S.2     1  UNL1       -0.0808
     16 C         140.3809  140.2593  170.7848 C.2     1  UNL1        0.2230
     17 N         139.4330  139.2704  171.3960 N.2     1  UNL1       -0.2662
     18 H         138.9684  139.4884  172.2361 H       1  UNL1        0.1899
     19 O         140.6210  141.5802  171.4536 O.2     1  UNL1       -0.4603
     20 C         140.4130  143.6208  169.8590 C.3     1  UNL1        0.0512
     21 C         141.2592  142.7025  170.6902 C.3     1  UNL1        0.2072
     22 C         139.5820  138.6226  159.0916 C.3     1  UNL1        0.0437
     23 C         140.7716  138.8429  158.2048 C.3     1  UNL1        0.0768
     24 N         141.3632  137.6934  157.4441 N.3     1  UNL1       -0.2737
     25 C         142.7280  137.1072  157.6528 C.3     1  UNL1        0.0721
     26 C         142.9021  135.9798  156.6788 C.3     1  UNL1        0.0187
     27 C         141.6448  135.8692  155.8682 C.3     1  UNL1        0.0174
     28 C         140.6937  136.9283  156.3413 C.3     1  UNL1        0.0576
     29 C         139.3152  137.1784  155.8054 C.3     1  UNL1        0.0173
@<TRIPOS>BOND
     1    20    21    1
     2    21    19    1
     3    19    16    1
     4    16    17    2
     5    16    11    1
     6    11    12   ar
     7    12    13   ar
     8    13    14   ar
     9    14     1    1
    10     1     2   ar
    11     2     3   ar
    12     3     4   ar
    13     4     5   ar
    14     5     6   ar
    15     6    22    1
    16    22    23    1
    17    23    24    1
    18    24    25    1
    19    25    26    1
    20    26    27    1
    21    27    28    1
    22    28    29    1
    23     6     7   ar
    24     7     8   ar
    25     8     9   ar
    26     9    10   ar
    27    14    15   ar
    28    15    11   ar
    29    10     1   ar
    30     9     4   ar
    31    28    24    1
    32    17    18    1
@<TRIPOS>MOLECULE
*****
 29 32 0 0 0
SMALL
GASTEIGER

@<TRIPOS>ATOM
      1 C         140.0183  142.9847  162.4394 C.ar    1  UNL1        0.0872
      2 C         140.7583  143.7831  163.4713 C.ar    1  UNL1        0.0197
      3 C         140.7775  143.3273  164.9002 C.ar    1  UNL1        0.0030
      4 C         140.0567  142.0732  165.2972 C.ar    1  UNL1        0.0174
      5 C         140.0760  141.6175  166.7262 C.ar    1  UNL1       -0.0027
      6 C         139.3552  140.3633  167.1233 C.ar    1  UNL1       -0.0207
      7 C         138.6151  139.5649  166.0912 C.ar    1  UNL1       -0.0027
      8 C         138.5959  140.0207  164.6623 C.ar    1  UNL1        0.0188
      9 C         139.3167  141.2748  164.2653 C.ar    1  UNL1        0.0812
     10 N         139.2975  141.7305  162.8364 N.ar    1  UNL1       -0.2449
     11 C         140.4208  144.7140  158.9878 C.ar    1  UNL1        0.0821
     12 C         139.5180  143.5692  158.6349 C.ar    1  UNL1        0.0117
     13 C         139.2574  142.7821  159.8849 C.ar    1  UNL1        0.0087
     14 C         139.9990  143.4404  161.0103 C.ar    1  UNL1        0.0472
     15 S         140.7180  144.6344  160.4559 S.2     1  UNL1       -0.0808
     16 C         140.9358  145.7556  158.0392 C.2     1  UNL1        0.2230
     17 N         142.4117  145.9009  157.8141 N.2     1  UNL1       -0.2662
     18 H         142.7497  146.5845  157.1915 H       1  UNL1        0.1899
     19 O         139.9750  146.6518  157.3156 O.2     1  UNL1       -0.4603
     20 C         138.5047  146.3561  155.1941 C.3     1  UNL1        0.0512
     21 C         139.8497  146.5680  155.8233 C.3     1  UNL1        0.2072
     22 C         139.3744  139.9076  168.5522 C.3     1  UNL1        0.0437
     23 C         139.6683  140.8885  169.6484 C.3     1  UNL1        0.0768
     24 N         141.0627  141.4087  169.8354 N.3     1  UNL1       -0.2737
     25 C         141.4580  142.8513  169.9473 C.3     1  UNL1        0.0721
     26 C         142.9462  142.9118  170.1243 C.3     1  UNL1        0.0187
     27 C         143.4708  141.5065  170.1218 C.3     1  UNL1        0.0174
     28 C         142.3067  140.5775  169.9432 C.3     1  UNL1        0.0576
     29 C         142.3747  139.0803  169.8831 C.3     1  UNL1        0.0173
@<TRIPOS>BOND
     1    20    21    1
     2    21    19    1
     3    19    16    1
     4    16    17    2
     5    16    11    1
     6    11    12   ar
     7    12    13   ar
     8    13    14   ar
     9    14     1    1
    10     1     2   ar
    11     2     3   ar
    12     3     4   ar
    13     4     5   ar
    14     5     6   ar
    15     6    22    1
    16    22    23    1
    17    23    24    1
    18    24    25    1
    19    25    26    1
    20    26    27    1
    21    27    28    1
    22    28    29    1
    23     6     7   ar
    24     7     8   ar
    25     8     9   ar
    26     9    10   ar
    27    14    15   ar
    28    15    11   ar
    29    10     1   ar
    30     9     4   ar
    31    28    24    1
    32    17    18    1
@<TRIPOS>MOLECULE
*****
 29 32 0 0 0
SMALL
GASTEIGER

@<TRIPOS>ATOM
      1 C         140.9117  138.4474  159.6109 C.ar    1  UNL1        0.0872
      2 C         139.4443  138.7577  159.6195 C.ar    1  UNL1        0.0197
      3 C         138.6661  138.6673  160.8987 C.ar    1  UNL1        0.0030
      4 C         139.3555  138.2665  162.1692 C.ar    1  UNL1        0.0174
      5 C         138.5773  138.1760  163.4484 C.ar    1  UNL1       -0.0027
      6 C         139.2666  137.7752  164.7189 C.ar    1  UNL1       -0.0207
      7 C         140.7342  137.4648  164.7101 C.ar    1  UNL1       -0.0027
      8 C         141.5123  137.5553  163.4310 C.ar    1  UNL1        0.0188
      9 C         140.8230  137.9561  162.1605 C.ar    1  UNL1        0.0812
     10 N         141.6011  138.0465  160.8813 N.ar    1  UNL1       -0.2449
     11 C         143.1008  137.9624  156.4425 C.ar    1  UNL1        0.0821
     12 C         142.6741  139.3917  156.2839 C.ar    1  UNL1        0.0117
     13 C         141.8021  139.7473  157.4515 C.ar    1  UNL1        0.0087
     14 C         141.6899  138.5378  158.3316 C.ar    1  UNL1        0.0472
     15 S         142.4925  137.4347  157.7080 S.2     1  UNL1       -0.0808
     16 C         143.9811  137.1955  155.5007 C.2     1  UNL1        0.2230
     17 N         145.2331  137.8240  154.9646 N.2     1  UNL1       -0.2662
     18 H         145.8109  137.3207  154.3466 H       1  UNL1        0.1899
     19 O         143.6095  135.8000  155.0951 O.2     1  UNL1       -0.4603
     20 C         142.7367  133.5552  156.0694 C.3     1  UNL1        0.0512
     21 C         143.7354  134.6744  156.0785 C.3     1  UNL1        0.2072
     22 C         138.4885  137.6847  165.9980 C.3     1  UNL1        0.0437
     23 C         138.0622  138.9362  166.7067 C.3     1  UNL1        0.0768
     24 N         139.0884  139.9444  167.1313 N.3     1  UNL1       -0.2737
     25 C         139.8059  139.9711  168.4484 C.3     1  UNL1        0.0721
     26 C         140.7383  141.1460  168.4446 C.3     1  UNL1        0.0187
     27 C         140.5971  141.8455  167.1251 C.3     1  UNL1        0.0174
     28 C         139.5774  141.1028  166.3135 C.3     1  UNL1        0.0576
     29 C         139.1261  141.4565  164.9275 C.3     1  UNL1        0.0173
@<TRIPOS>BOND
     1    20    21    1
     2    21    19    1
     3    19    16    1
     4    16    17    2
     5    16    11    1
     6    11    12   ar
     7    12    13   ar
     8    13    14   ar
     9    14     1    1
    10     1     2   ar
    11     2     3   ar
    12     3     4   ar
    13     4     5   ar
    14     5     6   ar
    15     6    22    1
    16    22    23    1
    17    23    24    1
    18    24    25    1
    19    25    26    1
    20    26    27    1
    21    27    28    1
    22    28    29    1
    23     6     7   ar
    24     7     8   ar
    25     8     9   ar
    26     9    10   ar
    27    14    15   ar
    28    15    11   ar
    29    10     1   ar
    30     9     4   ar
    31    28    24    1
    32    17    18    1
@<TRIPOS>MOLECULE
*****
 29 32 0 0 0
SMALL
GASTEIGER

@<TRIPOS>ATOM
      1 C         141.3799  145.0756  159.7931 C.ar    1  UNL1        0.0872
      2 C         140.4693  145.5509  160.8862 C.ar    1  UNL1        0.0197
      3 C         140.7809  145.2248  162.3167 C.ar    1  UNL1        0.0030
      4 C         142.0032  144.4234  162.6542 C.ar    1  UNL1        0.0174
      5 C         142.3147  144.0972  164.0848 C.ar    1  UNL1       -0.0027
      6 C         143.5370  143.2958  164.4223 C.ar    1  UNL1       -0.0207
      7 C         144.4476  142.8205  163.3291 C.ar    1  UNL1       -0.0027
      8 C         144.1360  143.1467  161.8986 C.ar    1  UNL1        0.0188
      9 C         142.9138  143.9481  161.5611 C.ar    1  UNL1        0.0812
     10 N         142.6022  144.2742  160.1306 N.ar    1  UNL1       -0.2449
     11 C         139.9784  146.2801  156.3798 C.ar    1  UNL1        0.0821
     12 C         141.1996  145.5270  155.9422 C.ar    1  UNL1        0.0117
     13 C         141.8732  144.9841  157.1675 C.ar    1  UNL1        0.0087
     14 C         141.0684  145.4018  158.3625 C.ar    1  UNL1        0.0472
     15 S         139.8973  146.2027  157.8756 S.2     1  UNL1       -0.0808
     16 C         139.0085  146.9867  155.4797 C.2     1  UNL1        0.2230
     17 N         137.8530  146.2366  154.8862 N.2     1  UNL1       -0.2662
     18 H         137.2165  146.7004  154.2954 H       1  UNL1        0.1899
     19 O         139.1942  148.4432  155.1730 O.2     1  UNL1       -0.4603
     20 C         138.5600  150.9219  155.6245 C.3     1  UNL1        0.0512
     21 C         138.5462  149.4809  156.0408 C.3     1  UNL1        0.2072
     22 C         143.8486  142.9697  165.8528 C.3     1  UNL1        0.0437
     23 C         142.9631  142.0314  166.6182 C.3     1  UNL1        0.0768
     24 N         142.4621  140.7756  165.9690 N.3     1  UNL1       -0.2737
     25 C         143.2576  139.5253  165.7365 C.3     1  UNL1        0.0721
     26 C         142.3647  138.5264  165.0620 C.3     1  UNL1        0.0187
     27 C         141.0173  139.1594  164.8776 C.3     1  UNL1        0.0174
     28 C         141.0775  140.5494  165.4381 C.3     1  UNL1        0.0576
     29 C         139.9509  141.5394  165.4634 C.3     1  UNL1        0.0173
@<TRIPOS>BOND
     1    20    21    1
     2    21    19    1
     3    19    16    1
     4    16    17    2
     5    16    11    1
     6    11    12   ar
     7    12    13   ar
     8    13    14   ar
     9    14     1    1
    10     1     2   ar
    11     2     3   ar
    12     3     4   ar
    13     4     5   ar
    14     5     6   ar
    15     6    22    1
    16    22    23    1
    17    23    24    1
    18    24    25    1
    19    25    26    1
    20    26    27    1
    21    27    28    1
    22    28    29    1
    23     6     7   ar
    24     7     8   ar
    25     8     9   ar
    26     9    10   ar
    27    14    15   ar
    28    15    11   ar
    29    10     1   ar
    30     9     4   ar
    31    28    24    1
    32    17    18    1
@<TRIPOS>MOLECULE
*****
 29 32 0 0 0
SMALL
GASTEIGER

@<TRIPOS>ATOM
      1 C         141.1124  139.1370  165.5965 C.ar    1  UNL1        0.0872
      2 C         139.9283  138.5626  164.8768 C.ar    1  UNL1        0.0197
      3 C         140.0654  138.1015  163.4561 C.ar    1  UNL1        0.0030
      4 C         141.3867  138.2148  162.7550 C.ar    1  UNL1        0.0174
      5 C         141.5238  137.7536  161.3342 C.ar    1  UNL1       -0.0027
      6 C         142.8450  137.8669  160.6331 C.ar    1  UNL1       -0.0207
      7 C         144.0291  138.4413  161.3528 C.ar    1  UNL1       -0.0027
      8 C         143.8920  138.9024  162.7736 C.ar    1  UNL1        0.0188
      9 C         142.5708  138.7892  163.4747 C.ar    1  UNL1        0.0812
     10 N         142.4337  139.2503  164.8954 N.ar    1  UNL1       -0.2449
     11 C         141.5111  140.3413  169.2648 C.ar    1  UNL1        0.0821
     12 C         140.0175  140.2742  169.1424 C.ar    1  UNL1        0.0117
     13 C         139.6865  139.8149  167.7534 C.ar    1  UNL1        0.0087
     14 C         140.9753  139.5981  167.0173 C.ar    1  UNL1        0.0472
     15 S         142.1030  139.9234  167.9514 S.2     1  UNL1       -0.0808
     16 C         142.2780  140.7537  170.4861 C.2     1  UNL1        0.2230
     17 N         143.3135  139.8368  171.0667 N.2     1  UNL1       -0.2662
     18 H         143.8168  140.1075  171.8683 H       1  UNL1        0.1899
     19 O         142.0095  142.0831  171.1269 O.2     1  UNL1       -0.4603
     20 C         140.5871  143.8800  169.9031 C.3     1  UNL1        0.0512
     21 C         141.9259  143.3197  170.2822 C.3     1  UNL1        0.2072
     22 C         142.9821  137.4058  159.2124 C.3     1  UNL1        0.0437
     23 C         142.4732  138.2645  158.0927 C.3     1  UNL1        0.0768
     24 N         143.4012  138.6934  156.9950 N.3     1  UNL1       -0.2737
     25 C         143.9702  140.0687  156.8087 C.3     1  UNL1        0.0721
     26 C         144.8438  140.0477  155.5895 C.3     1  UNL1        0.0187
     27 C         144.8146  138.6592  155.0223 C.3     1  UNL1        0.0174
     28 C         143.9230  137.8223  155.8910 C.3     1  UNL1        0.0576
     29 C         143.6085  136.3694  155.6908 C.3     1  UNL1        0.0173
@<TRIPOS>BOND
     1    20    21    1
     2    21    19    1
     3    19    16    1
     4    16    17    2
     5    16    11    1
     6    11    12   ar
     7    12    13   ar
     8    13    14   ar
     9    14     1    1
    10     1     2   ar
    11     2     3   ar
    12     3     4   ar
    13     4     5   ar
    14     5     6   ar
    15     6    22    1
    16    22    23    1
    17    23    24    1
    18    24    25    1
    19    25    26    1
    20    26    27    1
    21    27    28    1
    22    28    29    1
    23     6     7   ar
    24     7     8   ar
    25     8     9   ar
    26     9    10   ar
    27    14    15   ar
    28    15    11   ar
    29    10     1   ar
    30     9     4   ar
    31    28    24    1
    32    17    18    1
@<TRIPOS>MOLECULE
*****
 29 32 0 0 0
SMALL
GASTEIGER

@<TRIPOS>ATOM
      1 C         140.2469  138.8059  164.0687 C.ar    1  UNL1        0.0872
      2 C         141.6497  138.2903  163.9419 C.ar    1  UNL1        0.0197
      3 C         142.2380  138.0428  162.5845 C.ar    1  UNL1        0.0030
      4 C         141.4234  138.3110  161.3538 C.ar    1  UNL1        0.0174
      5 C         142.0117  138.0635  159.9963 C.ar    1  UNL1       -0.0027
      6 C         141.1971  138.3317  158.7656 C.ar    1  UNL1       -0.0207
      7 C         139.7942  138.8474  158.8925 C.ar    1  UNL1       -0.0027
      8 C         139.2060  139.0949  160.2499 C.ar    1  UNL1        0.0188
      9 C         140.0206  138.8267  161.4806 C.ar    1  UNL1        0.0812
     10 N         139.4323  139.0741  162.8380 N.ar    1  UNL1       -0.2449
     11 C         139.3707  139.8105  167.7141 C.ar    1  UNL1        0.0821
     12 C         138.1357  139.0580  167.3160 C.ar    1  UNL1        0.0117
     13 C         138.3136  138.5901  165.9020 C.ar    1  UNL1        0.0087
     14 C         139.6586  139.0534  165.4262 C.ar    1  UNL1        0.0472
     15 S         140.3119  139.8077  166.5461 S.2     1  UNL1       -0.0808
     16 C         139.6207  140.4530  169.0462 C.2     1  UNL1        0.2230
     17 N         138.7230  140.1449  170.2078 N.2     1  UNL1       -0.2662
     18 H         138.8871  140.5666  171.0821 H       1  UNL1        0.1899
     19 O         140.7684  141.4037  169.2169 O.2     1  UNL1       -0.4603
     20 C         140.3240  143.8695  169.9039 C.3     1  UNL1        0.0512
     21 C         140.6083  142.8475  168.8435 C.3     1  UNL1        0.2072
     22 C         141.7854  138.0843  157.4082 C.3     1  UNL1        0.0437
     23 C         142.8434  137.0361  157.2290 C.3     1  UNL1        0.0768
     24 N         142.6357  135.9209  156.2475 N.3     1  UNL1       -0.2737
     25 C         142.0451  136.0530  154.8750 C.3     1  UNL1        0.0721
     26 C         142.0264  134.6916  154.2454 C.3     1  UNL1        0.0187
     27 C         142.6056  133.7182  155.2289 C.3     1  UNL1        0.0174
     28 C         142.9821  134.4780  156.4662 C.3     1  UNL1        0.0576
     29 C         143.5970  133.8968  157.7048 C.3     1  UNL1        0.0173
@<TRIPOS>BOND
     1    20    21    1
     2    21    19    1
     3    19    16    1
     4    16    17    2
     5    16    11    1
     6    11    12   ar
     7    12    13   ar
     8    13    14   ar
     9    14     1    1
    10     1     2   ar
    11     2     3   ar
    12     3     4   ar
    13     4     5   ar
    14     5     6   ar
    15     6    22    1
    16    22    23    1
    17    23    24    1
    18    24    25    1
    19    25    26    1
    20    26    27    1
    21    27    28    1
    22    28    29    1
    23     6     7   ar
    24     7     8   ar
    25     8     9   ar
    26     9    10   ar
    27    14    15   ar
    28    15    11   ar
    29    10     1   ar
    30     9     4   ar
    31    28    24    1
    32    17    18    1
