@<TRIPOS>MOLECULE
*****
 30 34 0 0 0
SMALL
GASTEIGER

@<TRIPOS>ATOM
      1 C         140.2842  145.1140  158.5775 C.3     1  UNL1        0.0181
      2 C         140.2999  145.6017  159.9960 C.3     1  UNL1        0.0036
      3 C         140.2481  145.7908  161.4832 C.3     1  UNL1        0.0227
      4 C         139.9281  144.4654  162.1082 C.3     1  UNL1        0.0870
      5 C         139.7822  143.4570  161.0074 C.3     1  UNL1        0.0227
      6 C         140.0120  144.1592  159.7020 C.3     1  UNL1        0.0036
      7 N         139.7800  144.1956  163.5763 N.ar    1  UNL1       -0.3109
      8 C         138.6667  144.6845  164.4547 C.ar    1  UNL1        0.1785
      9 N         138.9180  144.1806  165.8450 N.ar    1  UNL1       -0.2216
     10 C         140.1865  143.3802  165.8258 C.ar    1  UNL1        0.1261
     11 C         140.9252  142.6443  166.9040 C.ar    1  UNL1        0.1591
     12 F         140.3924  142.6350  168.3062 F       1  UNL1       -0.2025
     13 C         142.1968  141.9175  166.5800 C.ar    1  UNL1        0.0313
     14 C         142.7296  141.9268  165.1779 C.ar    1  UNL1        0.0039
     15 C         141.9908  142.6628  164.0997 C.ar    1  UNL1        0.0189
     16 C         140.7193  143.3895  164.4237 C.ar    1  UNL1        0.0811
     17 C         140.4322  145.3838  157.1095 C.3     1  UNL1        0.0718
     18 N         140.3693  146.7915  156.5955 N.am    1  UNL1       -0.3025
     19 C         139.2327  147.2182  155.7146 C.2     1  UNL1        0.2458
     20 O         138.1590  146.2371  155.3477 O.2     1  UNL1       -0.2701
     21 H         141.0740  147.4355  156.8363 H       1  UNL1        0.1497
     22 C         139.1697  148.6261  155.2006 C.ar    1  UNL1        0.0534
     23 C         138.5407  149.7018  156.0353 C.ar    1  UNL1        0.0054
     24 C         138.4777  151.1096  155.5213 C.ar    1  UNL1        0.0115
     25 C         139.0439  151.4416  154.1725 C.ar    1  UNL1        0.0577
     26 CL        138.9810  152.8493  153.6585 Cl      1  UNL1       -0.0822
     27 C         139.6730  150.3658  153.3377 C.ar    1  UNL1        0.0115
     28 C         139.7359  148.9580  153.8517 C.ar    1  UNL1        0.0054
     29 C         141.5557  144.4144  154.9769 C.3     1  UNL1        0.0017
     30 C         140.6433  144.2457  156.1553 C.3     1  UNL1        0.0196
@<TRIPOS>BOND
     1    29    30    1
     2    30    17    1
     3    17    18    1
     4    18    19   am
     5    19    20    2
     6    19    22    1
     7    22    23   ar
     8    23    24   ar
     9    24    25   ar
    10    25    26    1
    11    25    27   ar
    12    27    28   ar
    13     1    17    1
    14     1     2    1
    15     2     3    1
    16     3     4    1
    17     4     7    1
    18     7     8   ar
    19     8     9   ar
    20     9    10   ar
    21    10    11   ar
    22    11    12    1
    23    11    13   ar
    24    13    14   ar
    25    14    15   ar
    26    15    16   ar
    27     4     5    1
    28     6     5    1
    29    28    22   ar
    30     6     1    1
    31     6     2    1
    32    16     7   ar
    33    16    10   ar
    34    18    21    1
@<TRIPOS>MOLECULE
*****
 30 34 0 0 0
SMALL
GASTEIGER

@<TRIPOS>ATOM
      1 C         137.3015  142.4721  156.3148 C.3     1  UNL1        0.0181
      2 C         137.8005  142.3395  157.7232 C.3     1  UNL1        0.0036
      3 C         138.5121  142.4194  159.0412 C.3     1  UNL1        0.0227
      4 C         139.6323  143.4074  158.9043 C.3     1  UNL1        0.0870
      5 C         139.6132  143.9383  157.5015 C.3     1  UNL1        0.0227
      6 C         138.4811  143.2783  156.7715 C.3     1  UNL1        0.0036
      7 N         140.6015  143.7964  159.9810 N.ar    1  UNL1       -0.3109
      8 C         142.0863  143.9373  159.8218 C.ar    1  UNL1        0.1785
      9 N         142.6585  144.3408  161.1484 N.ar    1  UNL1       -0.2216
     10 C         141.5273  144.4492  162.1275 C.ar    1  UNL1        0.1261
     11 C         141.4906  144.8108  163.5827 C.ar    1  UNL1        0.1591
     12 F         142.7620  145.1472  164.3042 F       1  UNL1       -0.2025
     13 C         140.1826  144.8360  164.3165 C.ar    1  UNL1        0.0313
     14 C         138.9113  144.4995  163.5950 C.ar    1  UNL1        0.0039
     15 C         138.9480  144.1379  162.1398 C.ar    1  UNL1        0.0189
     16 C         140.2560  144.1128  161.4060 C.ar    1  UNL1        0.0811
     17 C         136.3323  142.0831  155.2381 C.3     1  UNL1        0.0718
     18 N         134.9050  141.7816  155.5870 N.am    1  UNL1       -0.3025
     19 C         134.4383  140.3586  155.6724 C.2     1  UNL1        0.2458
     20 O         135.3990  139.2371  155.4089 O.2     1  UNL1       -0.2701
     21 H         134.2744  142.5176  155.7599 H       1  UNL1        0.1497
     22 C         133.0108  140.0570  156.0213 C.ar    1  UNL1        0.0534
     23 C         132.6563  138.7496  156.6651 C.ar    1  UNL1        0.0054
     24 C         131.2289  138.4480  157.0139 C.ar    1  UNL1        0.0115
     25 C         130.1561  139.4541  156.7190 C.ar    1  UNL1        0.0577
     26 CL        128.7288  139.1525  157.0678 Cl      1  UNL1       -0.0822
     27 C         130.5107  140.7616  156.0751 C.ar    1  UNL1        0.0115
     28 C         131.9381  141.0632  155.7263 C.ar    1  UNL1        0.0054
     29 C         135.7983  142.1338  152.6960 C.3     1  UNL1        0.0017
     30 C         136.7904  141.9957  153.8124 C.3     1  UNL1        0.0196
@<TRIPOS>BOND
     1    29    30    1
     2    30    17    1
     3    17    18    1
     4    18    19   am
     5    19    20    2
     6    19    22    1
     7    22    23   ar
     8    23    24   ar
     9    24    25   ar
    10    25    26    1
    11    25    27   ar
    12    27    28   ar
    13     1    17    1
    14     1     2    1
    15     2     3    1
    16     3     4    1
    17     4     7    1
    18     7     8   ar
    19     8     9   ar
    20     9    10   ar
    21    10    11   ar
    22    11    12    1
    23    11    13   ar
    24    13    14   ar
    25    14    15   ar
    26    15    16   ar
    27     4     5    1
    28     6     5    1
    29    28    22   ar
    30     6     1    1
    31     6     2    1
    32    16     7   ar
    33    16    10   ar
    34    18    21    1
@<TRIPOS>MOLECULE
*****
 30 34 0 0 0
SMALL
GASTEIGER

@<TRIPOS>ATOM
      1 C         142.1807  137.4641  157.4223 C.3     1  UNL1        0.0181
      2 C         141.5722  136.5366  156.4125 C.3     1  UNL1        0.0036
      3 C         141.2488  135.4782  155.3999 C.3     1  UNL1        0.0227
      4 C         142.4846  134.6583  155.1754 C.3     1  UNL1        0.0870
      5 C         143.5719  135.2099  156.0493 C.3     1  UNL1        0.0227
      6 C         143.0080  136.3707  156.8138 C.3     1  UNL1        0.0036
      7 N         142.6111  133.4916  154.2412 N.ar    1  UNL1       -0.3109
      8 C         141.9835  133.3771  152.8836 C.ar    1  UNL1        0.1785
      9 N         142.3719  132.0493  152.3039 N.ar    1  UNL1       -0.2216
     10 C         143.2395  131.3432  153.3032 C.ar    1  UNL1        0.1261
     11 C         143.9140  130.0036  153.2776 C.ar    1  UNL1        0.1591
     12 F         143.7661  129.1123  152.0803 F       1  UNL1       -0.2025
     13 C         144.7363  129.5555  154.4493 C.ar    1  UNL1        0.0313
     14 C         144.8842  130.4469  155.6466 C.ar    1  UNL1        0.0039
     15 C         144.2097  131.7864  155.6722 C.ar    1  UNL1        0.0189
     16 C         143.3873  132.2346  154.5005 C.ar    1  UNL1        0.0811
     17 C         142.0543  138.6307  158.3565 C.3     1  UNL1        0.0718
     18 N         141.2177  138.5119  159.5959 N.am    1  UNL1       -0.3025
     19 C         141.8224  137.9781  160.8606 C.2     1  UNL1        0.2458
     20 O         143.2636  137.5631  160.8859 O.2     1  UNL1       -0.2701
     21 H         140.2718  138.7843  159.5793 H       1  UNL1        0.1497
     22 C         140.9858  137.8593  162.1000 C.ar    1  UNL1        0.0534
     23 C         139.4933  137.9804  162.0119 C.ar    1  UNL1        0.0054
     24 C         138.6568  137.8616  163.2513 C.ar    1  UNL1        0.0115
     25 C         139.3127  137.6217  164.5787 C.ar    1  UNL1        0.0577
     26 CL        138.4761  137.5029  165.8181 Cl      1  UNL1       -0.0822
     27 C         140.8052  137.5006  164.6668 C.ar    1  UNL1        0.0115
     28 C         141.6418  137.6194  163.4275 C.ar    1  UNL1        0.0054
     29 C         143.7377  139.9835  156.9121 C.3     1  UNL1        0.0017
     30 C         142.7644  139.9163  158.0514 C.3     1  UNL1        0.0196
@<TRIPOS>BOND
     1    29    30    1
     2    30    17    1
     3    17    18    1
     4    18    19   am
     5    19    20    2
     6    19    22    1
     7    22    23   ar
     8    23    24   ar
     9    24    25   ar
    10    25    26    1
    11    25    27   ar
    12    27    28   ar
    13     1    17    1
    14     1     2    1
    15     2     3    1
    16     3     4    1
    17     4     7    1
    18     7     8   ar
    19     8     9   ar
    20     9    10   ar
    21    10    11   ar
    22    11    12    1
    23    11    13   ar
    24    13    14   ar
    25    14    15   ar
    26    15    16   ar
    27     4     5    1
    28     6     5    1
    29    28    22   ar
    30     6     1    1
    31     6     2    1
    32    16     7   ar
    33    16    10   ar
    34    18    21    1
@<TRIPOS>MOLECULE
*****
 30 34 0 0 0
SMALL
GASTEIGER

@<TRIPOS>ATOM
      1 C         142.8016  137.5087  157.0545 C.3     1  UNL1        0.0181
      2 C         142.6219  137.7668  158.5212 C.3     1  UNL1        0.0036
      3 C         142.1493  138.1005  159.9052 C.3     1  UNL1        0.0227
      4 C         140.7109  138.5165  159.8161 C.3     1  UNL1        0.0870
      5 C         140.2945  138.4399  158.3771 C.3     1  UNL1        0.0227
      6 C         141.4755  137.9765  157.5769 C.3     1  UNL1        0.0036
      7 N         139.8416  138.9356  160.9644 N.ar    1  UNL1       -0.3109
      8 C         138.6819  139.8842  160.8920 C.ar    1  UNL1        0.1785
      9 N         138.1029  140.0144  162.2696 N.ar    1  UNL1       -0.2216
     10 C         138.9047  139.1463  163.1934 C.ar    1  UNL1        0.1261
     11 C         138.7951  138.8768  164.6649 C.ar    1  UNL1        0.1591
     12 F         137.7205  139.5436  165.4716 F       1  UNL1       -0.2025
     13 C         139.7601  137.9405  165.3297 C.ar    1  UNL1        0.0313
     14 C         140.8346  137.2736  164.5231 C.ar    1  UNL1        0.0039
     15 C         140.9442  137.5432  163.0516 C.ar    1  UNL1        0.0189
     16 C         139.9792  138.4795  162.3868 C.ar    1  UNL1        0.0811
     17 C         143.6709  137.0897  155.9062 C.3     1  UNL1        0.0718
     18 N         144.1334  135.6671  155.7958 N.am    1  UNL1       -0.3025
     19 C         143.1427  134.5759  155.5170 C.2     1  UNL1        0.2458
     20 O         141.6895  134.9072  155.3486 O.2     1  UNL1       -0.2701
     21 H         145.0872  135.4496  155.9063 H       1  UNL1        0.1497
     22 C         143.6053  133.1531  155.4066 C.ar    1  UNL1        0.0534
     23 C         144.5678  132.5971  156.4136 C.ar    1  UNL1        0.0054
     24 C         145.0303  131.1745  156.3032 C.ar    1  UNL1        0.0115
     25 C         144.5303  130.3079  155.1857 C.ar    1  UNL1        0.0577
     26 CL        144.9928  128.8853  155.0752 Cl      1  UNL1       -0.0822
     27 C         143.5677  130.8639  154.1785 C.ar    1  UNL1        0.0115
     28 C         143.1052  132.2866  154.2889 C.ar    1  UNL1        0.0054
     29 C         144.8845  139.2948  155.2623 C.3     1  UNL1        0.0017
     30 C         144.0778  138.0933  154.8682 C.3     1  UNL1        0.0196
@<TRIPOS>BOND
     1    29    30    1
     2    30    17    1
     3    17    18    1
     4    18    19   am
     5    19    20    2
     6    19    22    1
     7    22    23   ar
     8    23    24   ar
     9    24    25   ar
    10    25    26    1
    11    25    27   ar
    12    27    28   ar
    13     1    17    1
    14     1     2    1
    15     2     3    1
    16     3     4    1
    17     4     7    1
    18     7     8   ar
    19     8     9   ar
    20     9    10   ar
    21    10    11   ar
    22    11    12    1
    23    11    13   ar
    24    13    14   ar
    25    14    15   ar
    26    15    16   ar
    27     4     5    1
    28     6     5    1
    29    28    22   ar
    30     6     1    1
    31     6     2    1
    32    16     7   ar
    33    16    10   ar
    34    18    21    1
@<TRIPOS>MOLECULE
*****
 30 34 0 0 0
SMALL
GASTEIGER

@<TRIPOS>ATOM
      1 C         142.5897  138.2492  158.3413 C.3     1  UNL1        0.0181
      2 C         142.8293  139.6055  158.9357 C.3     1  UNL1        0.0036
      3 C         143.1707  140.7987  159.7782 C.3     1  UNL1        0.0227
      4 C         143.7075  140.3032  161.0881 C.3     1  UNL1        0.0870
      5 C         143.6980  138.8036  161.0554 C.3     1  UNL1        0.0227
      6 C         143.1552  138.3724  159.7252 C.3     1  UNL1        0.0036
      7 N         144.1724  141.1572  162.2303 N.ar    1  UNL1       -0.3109
      8 C         145.2725  140.8200  163.1926 C.ar    1  UNL1        0.1785
      9 N         145.3987  141.9528  164.1677 N.ar    1  UNL1       -0.2216
     10 C         144.3766  142.9901  163.8081 C.ar    1  UNL1        0.1261
     11 C         144.0381  144.3188  164.4163 C.ar    1  UNL1        0.1591
     12 F         144.7960  144.8105  165.6137 F       1  UNL1       -0.2025
     13 C         142.9416  145.1558  163.8270 C.ar    1  UNL1        0.0313
     14 C         142.1837  144.6640  162.6297 C.ar    1  UNL1        0.0039
     15 C         142.5222  143.3353  162.0215 C.ar    1  UNL1        0.0189
     16 C         143.6186  142.4984  162.6107 C.ar    1  UNL1        0.0811
     17 C         142.1249  137.3952  157.1992 C.3     1  UNL1        0.0718
     18 N         142.4069  135.9220  157.2010 N.am    1  UNL1       -0.3025
     19 C         143.5922  135.3844  156.4553 C.2     1  UNL1        0.2458
     20 O         144.4954  136.3200  155.7077 O.2     1  UNL1       -0.2701
     21 H         141.8141  135.3079  157.6917 H       1  UNL1        0.1497
     22 C         143.8742  133.9111  156.4571 C.ar    1  UNL1        0.0534
     23 C         143.5496  133.0838  155.2488 C.ar    1  UNL1        0.0054
     24 C         143.8316  131.6106  155.2506 C.ar    1  UNL1        0.0115
     25 C         144.4383  130.9646  156.4607 C.ar    1  UNL1        0.0577
     26 CL        144.7204  129.4914  156.4625 Cl      1  UNL1       -0.0822
     27 C         144.7630  131.7919  157.6691 C.ar    1  UNL1        0.0115
     28 C         144.4810  133.2651  157.6674 C.ar    1  UNL1        0.0054
     29 C         140.6293  137.1443  155.0896 C.3     1  UNL1        0.0017
     30 C         141.3779  138.0144  156.0552 C.3     1  UNL1        0.0196
@<TRIPOS>BOND
     1    29    30    1
     2    30    17    1
     3    17    18    1
     4    18    19   am
     5    19    20    2
     6    19    22    1
     7    22    23   ar
     8    23    24   ar
     9    24    25   ar
    10    25    26    1
    11    25    27   ar
    12    27    28   ar
    13     1    17    1
    14     1     2    1
    15     2     3    1
    16     3     4    1
    17     4     7    1
    18     7     8   ar
    19     8     9   ar
    20     9    10   ar
    21    10    11   ar
    22    11    12    1
    23    11    13   ar
    24    13    14   ar
    25    14    15   ar
    26    15    16   ar
    27     4     5    1
    28     6     5    1
    29    28    22   ar
    30     6     1    1
    31     6     2    1
    32    16     7   ar
    33    16    10   ar
    34    18    21    1
@<TRIPOS>MOLECULE
*****
 30 34 0 0 0
SMALL
GASTEIGER

@<TRIPOS>ATOM
      1 C         140.3313  144.6001  157.8374 C.3     1  UNL1        0.0181
      2 C         140.2842  144.6031  159.3368 C.3     1  UNL1        0.0036
      3 C         140.0523  144.3554  160.7979 C.3     1  UNL1        0.0227
      4 C         139.1589  143.1577  160.9290 C.3     1  UNL1        0.0870
      5 C         138.8386  142.6651  159.5489 C.3     1  UNL1        0.0227
      6 C         139.5340  143.5583  158.5649 C.3     1  UNL1        0.0036
      7 N         138.6713  142.5579  162.2145 N.ar    1  UNL1       -0.3109
      8 C         137.8690  143.2627  163.2679 C.ar    1  UNL1        0.1785
      9 N         137.6023  142.2883  164.3767 N.ar    1  UNL1       -0.2216
     10 C         138.2398  140.9813  164.0086 C.ar    1  UNL1        0.1261
     11 C         138.3040  139.6611  164.7176 C.ar    1  UNL1        0.1591
     12 F         137.6433  139.4945  166.0539 F       1  UNL1       -0.2025
     13 C         139.0289  138.5074  164.0903 C.ar    1  UNL1        0.0313
     14 C         139.6895  138.6740  162.7540 C.ar    1  UNL1        0.0039
     15 C         139.6253  139.9943  162.0450 C.ar    1  UNL1        0.0189
     16 C         138.9005  141.1479  162.6723 C.ar    1  UNL1        0.0811
     17 C         140.8188  145.1999  156.5520 C.3     1  UNL1        0.0718
     18 N         140.6183  146.6619  156.2829 N.am    1  UNL1       -0.3025
     19 C         139.3957  147.1288  155.5501 C.2     1  UNL1        0.2458
     20 O         138.3735  146.1338  155.0863 O.2     1  UNL1       -0.2701
     21 H         141.2892  147.3150  156.5873 H       1  UNL1        0.1497
     22 C         139.1952  148.5909  155.2810 C.ar    1  UNL1        0.0534
     23 C         139.6858  149.1913  153.9970 C.ar    1  UNL1        0.0054
     24 C         139.4854  150.6533  153.7280 C.ar    1  UNL1        0.0115
     25 C         138.7942  151.5148  154.7429 C.ar    1  UNL1        0.0577
     26 CL        138.5937  152.9768  154.4738 Cl      1  UNL1       -0.0822
     27 C         138.3035  150.9144  156.0269 C.ar    1  UNL1        0.0115
     28 C         138.5040  149.4524  156.2960 C.ar    1  UNL1        0.0054
     29 C         142.5325  143.3347  155.9736 C.3     1  UNL1        0.0017
     30 C         141.5069  144.3377  155.5355 C.3     1  UNL1        0.0196
@<TRIPOS>BOND
     1    29    30    1
     2    30    17    1
     3    17    18    1
     4    18    19   am
     5    19    20    2
     6    19    22    1
     7    22    23   ar
     8    23    24   ar
     9    24    25   ar
    10    25    26    1
    11    25    27   ar
    12    27    28   ar
    13     1    17    1
    14     1     2    1
    15     2     3    1
    16     3     4    1
    17     4     7    1
    18     7     8   ar
    19     8     9   ar
    20     9    10   ar
    21    10    11   ar
    22    11    12    1
    23    11    13   ar
    24    13    14   ar
    25    14    15   ar
    26    15    16   ar
    27     4     5    1
    28     6     5    1
    29    28    22   ar
    30     6     1    1
    31     6     2    1
    32    16     7   ar
    33    16    10   ar
    34    18    21    1
@<TRIPOS>MOLECULE
*****
 30 34 0 0 0
SMALL
GASTEIGER

@<TRIPOS>ATOM
      1 C         142.9857  139.8262  161.7331 C.3     1  UNL1        0.0181
      2 C         143.1348  139.4774  160.2818 C.3     1  UNL1        0.0036
      3 C         142.9982  139.0038  158.8651 C.3     1  UNL1        0.0227
      4 C         141.6634  138.3337  158.7268 C.3     1  UNL1        0.0870
      5 C         140.9749  138.3932  160.0582 C.3     1  UNL1        0.0227
      6 C         141.8842  139.1000  161.0191 C.3     1  UNL1        0.0036
      7 N         141.1135  137.7131  157.4768 N.ar    1  UNL1       -0.3109
      8 C         139.7398  137.9306  156.9152 C.ar    1  UNL1        0.1785
      9 N         139.6182  137.1180  155.6603 N.ar    1  UNL1       -0.2216
     10 C         140.9167  136.3983  155.4463 C.ar    1  UNL1        0.1261
     11 C         141.3770  135.4555  154.3743 C.ar    1  UNL1        0.1591
     12 F         140.4528  135.0877  153.2515 F       1  UNL1       -0.2025
     13 C         142.7615  134.8807  154.4250 C.ar    1  UNL1        0.0313
     14 C         143.6857  135.2485  155.5477 C.ar    1  UNL1        0.0039
     15 C         143.2255  136.1912  156.6197 C.ar    1  UNL1        0.0189
     16 C         141.8410  136.7661  156.5691 C.ar    1  UNL1        0.0811
     17 C         143.5355  140.4467  162.9830 C.3     1  UNL1        0.0718
     18 N         142.6489  140.6390  164.1776 N.am    1  UNL1       -0.3025
     19 C         142.5992  139.5923  165.2509 C.2     1  UNL1        0.2458
     20 O         143.4361  138.3535  165.1297 O.2     1  UNL1       -0.2701
     21 H         142.0996  141.4521  164.2571 H       1  UNL1        0.1497
     22 C         141.7126  139.7846  166.4455 C.ar    1  UNL1        0.0534
     23 C         142.3165  140.0445  167.7937 C.ar    1  UNL1        0.0054
     24 C         141.4299  140.2368  168.9882 C.ar    1  UNL1        0.0115
     25 C         139.9393  140.1692  168.8346 C.ar    1  UNL1        0.0577
     26 CL        139.0527  140.3615  170.0291 Cl      1  UNL1       -0.0822
     27 C         139.3353  139.9092  167.4864 C.ar    1  UNL1        0.0115
     28 C         140.2219  139.7170  166.2918 C.ar    1  UNL1        0.0054
     29 C         145.4075  141.9126  164.0304 C.3     1  UNL1        0.0017
     30 C         144.9720  140.8751  163.0385 C.3     1  UNL1        0.0196
@<TRIPOS>BOND
     1    29    30    1
     2    30    17    1
     3    17    18    1
     4    18    19   am
     5    19    20    2
     6    19    22    1
     7    22    23   ar
     8    23    24   ar
     9    24    25   ar
    10    25    26    1
    11    25    27   ar
    12    27    28   ar
    13     1    17    1
    14     1     2    1
    15     2     3    1
    16     3     4    1
    17     4     7    1
    18     7     8   ar
    19     8     9   ar
    20     9    10   ar
    21    10    11   ar
    22    11    12    1
    23    11    13   ar
    24    13    14   ar
    25    14    15   ar
    26    15    16   ar
    27     4     5    1
    28     6     5    1
    29    28    22   ar
    30     6     1    1
    31     6     2    1
    32    16     7   ar
    33    16    10   ar
    34    18    21    1
@<TRIPOS>MOLECULE
*****
 30 34 0 0 0
SMALL
GASTEIGER

@<TRIPOS>ATOM
      1 C         141.9503  138.6417  159.5887 C.3     1  UNL1        0.0181
      2 C         141.8017  139.4662  160.8330 C.3     1  UNL1        0.0036
      3 C         141.4427  140.0721  162.1574 C.3     1  UNL1        0.0227
      4 C         140.4061  139.1996  162.8008 C.3     1  UNL1        0.0870
      5 C         140.1243  138.0542  161.8740 C.3     1  UNL1        0.0227
      6 C         140.9868  138.2190  160.6579 C.3     1  UNL1        0.0036
      7 N         139.7640  139.4315  164.1364 N.ar    1  UNL1       -0.3109
      8 C         138.2937  139.5791  164.3941 C.ar    1  UNL1        0.1785
      9 N         138.1005  139.7954  165.8658 N.ar    1  UNL1       -0.2216
     10 C         139.4514  139.7813  166.5177 C.ar    1  UNL1        0.1261
     11 C         139.8781  139.9443  167.9464 C.ar    1  UNL1        0.1591
     12 F         138.8500  140.1692  169.0152 F       1  UNL1       -0.2025
     13 C         141.3329  139.8823  168.3063 C.ar    1  UNL1        0.0313
     14 C         142.3611  139.6574  167.2375 C.ar    1  UNL1        0.0039
     15 C         141.9343  139.4945  165.8088 C.ar    1  UNL1        0.0189
     16 C         140.4795  139.5564  165.4488 C.ar    1  UNL1        0.0811
     17 C         142.5924  138.4098  158.2532 C.3     1  UNL1        0.0718
     18 N         143.1767  137.0679  157.9248 N.am    1  UNL1       -0.3025
     19 C         142.4295  136.1229  157.0310 C.2     1  UNL1        0.2458
     20 O         141.0980  136.5199  156.4656 O.2     1  UNL1       -0.2701
     21 H         144.0505  136.8073  158.2958 H       1  UNL1        0.1497
     22 C         143.0138  134.7809  156.7026 C.ar    1  UNL1        0.0534
     23 C         143.8444  134.0554  157.7192 C.ar    1  UNL1        0.0054
     24 C         144.4286  132.7135  157.3908 C.ar    1  UNL1        0.0115
     25 C         144.1823  132.0971  156.0457 C.ar    1  UNL1        0.0577
     26 CL        144.7666  130.7552  155.7173 Cl      1  UNL1       -0.0822
     27 C         143.3516  132.8226  155.0290 C.ar    1  UNL1        0.0115
     28 C         142.7674  134.1645  155.3574 C.ar    1  UNL1        0.0054
     29 C         141.5832  140.5737  157.2290 C.3     1  UNL1        0.0017
     30 C         142.6503  139.5198  157.2458 C.3     1  UNL1        0.0196
@<TRIPOS>BOND
     1    29    30    1
     2    30    17    1
     3    17    18    1
     4    18    19   am
     5    19    20    2
     6    19    22    1
     7    22    23   ar
     8    23    24   ar
     9    24    25   ar
    10    25    26    1
    11    25    27   ar
    12    27    28   ar
    13     1    17    1
    14     1     2    1
    15     2     3    1
    16     3     4    1
    17     4     7    1
    18     7     8   ar
    19     8     9   ar
    20     9    10   ar
    21    10    11   ar
    22    11    12    1
    23    11    13   ar
    24    13    14   ar
    25    14    15   ar
    26    15    16   ar
    27     4     5    1
    28     6     5    1
    29    28    22   ar
    30     6     1    1
    31     6     2    1
    32    16     7   ar
    33    16    10   ar
    34    18    21    1
@<TRIPOS>MOLECULE
*****
 30 34 0 0 0
SMALL
GASTEIGER

@<TRIPOS>ATOM
      1 C         140.3881  138.1283  157.8683 C.3     1  UNL1        0.0181
      2 C         139.6170  138.6042  159.0637 C.3     1  UNL1        0.0036
      3 C         139.1286  139.1627  160.3674 C.3     1  UNL1        0.0227
      4 C         140.3186  139.6572  161.1349 C.3     1  UNL1        0.0870
      5 C         141.5427  139.4043  160.3057 C.3     1  UNL1        0.0227
      6 C         141.1091  138.7536  159.0256 C.3     1  UNL1        0.0036
      7 N         140.2897  140.2929  162.4932 N.ar    1  UNL1       -0.3109
      8 C         140.8205  141.6517  162.8422 C.ar    1  UNL1        0.1785
      9 N         140.5838  141.8799  164.3057 N.ar    1  UNL1       -0.2216
     10 C         139.9068  140.6622  164.8612 C.ar    1  UNL1        0.1261
     11 C         139.4323  140.3198  166.2424 C.ar    1  UNL1        0.1591
     12 F         139.6140  141.3007  167.3626 F       1  UNL1       -0.2025
     13 C         138.7760  138.9965  166.5033 C.ar    1  UNL1        0.0313
     14 C         138.5942  138.0156  165.3831 C.ar    1  UNL1        0.0039
     15 C         139.0687  138.3580  164.0020 C.ar    1  UNL1        0.0189
     16 C         139.7250  139.6813  163.7411 C.ar    1  UNL1        0.0811
     17 C         140.4170  137.4926  156.5100 C.3     1  UNL1        0.0718
     18 N         141.0159  136.1289  156.3328 N.am    1  UNL1       -0.3025
     19 C         142.4936  135.9313  156.4985 C.2     1  UNL1        0.2458
     20 O         143.3724  137.0975  156.8415 O.2     1  UNL1       -0.2701
     21 H         140.4391  135.3634  156.1076 H       1  UNL1        0.1497
     22 C         143.0924  134.5674  156.3213 C.ar    1  UNL1        0.0534
     23 C         143.9299  133.9685  157.4120 C.ar    1  UNL1        0.0054
     24 C         144.5288  132.6047  157.2347 C.ar    1  UNL1        0.0115
     25 C         144.2901  131.8399  155.9667 C.ar    1  UNL1        0.0577
     26 CL        144.8890  130.4761  155.7895 Cl      1  UNL1       -0.0822
     27 C         143.4526  132.4388  154.8759 C.ar    1  UNL1        0.0115
     28 C         142.8537  133.8025  155.0531 C.ar    1  UNL1        0.0054
     29 C         138.4685  137.8910  154.8383 C.3     1  UNL1        0.0017
     30 C         139.8470  138.2207  155.3288 C.3     1  UNL1        0.0196
@<TRIPOS>BOND
     1    29    30    1
     2    30    17    1
     3    17    18    1
     4    18    19   am
     5    19    20    2
     6    19    22    1
     7    22    23   ar
     8    23    24   ar
     9    24    25   ar
    10    25    26    1
    11    25    27   ar
    12    27    28   ar
    13     1    17    1
    14     1     2    1
    15     2     3    1
    16     3     4    1
    17     4     7    1
    18     7     8   ar
    19     8     9   ar
    20     9    10   ar
    21    10    11   ar
    22    11    12    1
    23    11    13   ar
    24    13    14   ar
    25    14    15   ar
    26    15    16   ar
    27     4     5    1
    28     6     5    1
    29    28    22   ar
    30     6     1    1
    31     6     2    1
    32    16     7   ar
    33    16    10   ar
    34    18    21    1
