@<TRIPOS>MOLECULE
*****
 38 42 0 0 0
SMALL
GASTEIGER

@<TRIPOS>ATOM
      1 C         141.4417  140.5083  165.7153 C.3     1  UNL1        0.0231
      2 C         141.1308  140.1954  167.1490 C.3     1  UNL1        0.0724
      3 C         141.2379  140.2688  167.2373 C.3     1  UNL1        0.0904
      4 C         140.0983  141.0280  167.8496 C.3     1  UNL1        0.0386
      5 C         140.3643  142.0498  168.9150 C.3     1  UNL1        0.0594
      6 C         141.0713  142.9331  169.8999 C.3     1  UNL1        0.0174
      7 C         142.5408  142.6463  169.8080 C.3     1  UNL1        0.0174
      8 C         142.7420  141.5859  168.7663 C.3     1  UNL1        0.0594
      9 C         142.6435  140.5314  167.6905 C.3     1  UNL1        0.0386
     10 N         141.3968  141.2173  168.2144 N.3     1  UNL1       -0.2751
     11 C         138.3119  139.4712  166.0322 C.3     1  UNL1        0.0738
     12 C         139.6270  138.8803  165.6179 C.ar    1  UNL1        0.1433
     13 N         139.8281  137.8191  164.5770 N.ar    1  UNL1       -0.1337
     14 N         141.2972  137.5299  164.4877 N.ar    1  UNL1       -0.1337
     15 C         142.0041  138.4123  165.4733 C.ar    1  UNL1        0.1425
     16 N         140.9719  139.2469  166.1719 N.ar    1  UNL1       -0.3039
     17 C         143.4835  138.4530  165.7176 C.3     1  UNL1        0.0588
     18 C         144.0748  137.6943  166.8686 C.3     1  UNL1        0.0080
     19 C         144.3718  139.2523  164.8109 C.3     1  UNL1        0.0080
     20 C         141.4989  141.9345  165.2544 C.3     1  UNL1        0.0411
     21 C         140.2420  142.6389  164.8371 C.ar    1  UNL1       -0.0211
     22 C         139.8245  143.9018  165.5306 C.ar    1  UNL1       -0.0042
     23 C         138.5677  144.6063  165.1133 C.ar    1  UNL1       -0.0003
     24 C         137.7283  144.0478  164.0026 C.ar    1  UNL1       -0.0000
     25 C         138.1458  142.7850  163.3091 C.ar    1  UNL1       -0.0003
     26 C         139.4027  142.0805  163.7264 C.ar    1  UNL1       -0.0042
     27 C         142.8130  142.6566  165.2107 C.3     1  UNL1        0.0958
     28 N         143.4720  142.9357  163.8924 N.3     1  UNL1       -0.1791
     29 H         143.8203  142.0431  163.5425 H       1  UNL1        0.1488
     30 S         142.6857  143.5604  162.7783 S.O2    1  UNL1        0.0602
     31 O         142.6958  142.2552  162.0392 O.2     1  UNL1       -0.1530
     32 O         142.6755  144.8657  163.5174 O.2     1  UNL1       -0.1530
     33 C         141.8993  144.1852  161.6642 C.ar    1  UNL1        0.1219
     34 C         140.7991  145.1562  161.9754 C.ar    1  UNL1        0.0199
     35 C         140.0127  145.7810  160.8613 C.ar    1  UNL1        0.0014
     36 C         140.3266  145.4349  159.4359 C.ar    1  UNL1        0.0001
     37 C         141.4268  144.4639  159.1247 C.ar    1  UNL1        0.0014
     38 C         142.2132  143.8391  160.2388 C.ar    1  UNL1        0.0199
@<TRIPOS>BOND
     1    11    12    1
     2    12    13   ar
     3    13    14   ar
     4    14    15   ar
     5    15    17    1
     6    17    18    1
     7    17    19    1
     8    15    16   ar
     9     3    16    1
    10     3     4    1
    11     5     4    1
    12     5     6    1
    13     6     7    1
    14     8     7    1
    15     8     9    1
    16     8    10    1
    17    10     2    1
    18     2     1    1
    19     1    20    1
    20    20    27    1
    21    27    28    1
    22    28    30    1
    23    30    31    2
    24    30    32    2
    25    30    33    1
    26    33    34   ar
    27    34    35   ar
    28    35    36   ar
    29    36    37   ar
    30    37    38   ar
    31    20    21    1
    32    21    22   ar
    33    22    23   ar
    34    23    24   ar
    35    24    25   ar
    36    25    26   ar
    37    16    12   ar
    38     9     3    1
    39    38    33   ar
    40    26    21   ar
    41    10     5    1
    42    28    29    1
@<TRIPOS>MOLECULE
*****
 38 42 0 0 0
SMALL
GASTEIGER

@<TRIPOS>ATOM
      1 C         140.8379  141.6616  163.5879 C.3     1  UNL1        0.0231
      2 C         140.3257  141.5332  162.1839 C.3     1  UNL1        0.0724
      3 C         140.1869  141.4598  162.1898 C.3     1  UNL1        0.0904
      4 C         140.8160  140.3716  161.3714 C.3     1  UNL1        0.0386
      5 C         140.0098  139.1707  160.9740 C.3     1  UNL1        0.0594
      6 C         138.8748  138.2026  160.8173 C.3     1  UNL1        0.0174
      7 C         137.6830  138.7659  161.5329 C.3     1  UNL1        0.0174
      8 C         138.0814  140.0821  162.1320 C.3     1  UNL1        0.0594
      9 C         138.7516  141.3472  162.6109 C.3     1  UNL1        0.0386
     10 N         139.5195  140.3323  161.7866 N.3     1  UNL1       -0.2751
     11 C         143.3556  141.9339  161.5695 C.3     1  UNL1        0.0738
     12 C         142.4496  142.8787  162.3021 C.ar    1  UNL1        0.1433
     13 N         142.8409  144.2072  162.8781 N.ar    1  UNL1       -0.1337
     14 N         141.6264  144.8104  163.5192 N.ar    1  UNL1       -0.1337
     15 C         140.4844  143.8547  163.3395 C.ar    1  UNL1        0.1425
     16 N         140.9931  142.6608  162.5872 N.ar    1  UNL1       -0.3039
     17 C         139.0802  144.0572  163.8264 C.3     1  UNL1        0.0588
     18 C         138.7551  143.8669  165.2783 C.3     1  UNL1        0.0080
     19 C         138.0010  144.4501  162.8615 C.3     1  UNL1        0.0080
     20 C         141.2146  140.4345  164.3639 C.3     1  UNL1        0.0411
     21 C         140.1497  139.6023  165.0146 C.ar    1  UNL1       -0.0211
     22 C         139.9701  138.1677  164.6146 C.ar    1  UNL1       -0.0042
     23 C         138.9052  137.3354  165.2652 C.ar    1  UNL1       -0.0003
     24 C         138.0199  137.9376  166.3157 C.ar    1  UNL1       -0.0000
     25 C         138.1994  139.3721  166.7156 C.ar    1  UNL1       -0.0003
     26 C         139.2643  140.2044  166.0651 C.ar    1  UNL1       -0.0042
     27 C         142.6563  140.0395  164.4894 C.3     1  UNL1        0.0958
     28 N         143.5646  140.7991  165.4103 N.3     1  UNL1       -0.1791
     29 H         144.0047  141.5307  164.8523 H       1  UNL1        0.1488
     30 S         143.0067  141.4640  166.6337 S.O2    1  UNL1        0.0602
     31 O         142.8210  140.1223  167.2782 O.2     1  UNL1       -0.1530
     32 O         143.1925  142.8057  165.9892 O.2     1  UNL1       -0.1530
     33 C         142.4489  142.1289  167.8571 C.ar    1  UNL1        0.1219
     34 C         143.3131  142.3166  169.0688 C.ar    1  UNL1        0.0199
     35 C         142.7553  142.9815  170.2921 C.ar    1  UNL1        0.0014
     36 C         141.3332  143.4588  170.3039 C.ar    1  UNL1        0.0001
     37 C         140.4691  143.2711  169.0922 C.ar    1  UNL1        0.0014
     38 C         141.0269  142.6062  167.8688 C.ar    1  UNL1        0.0199
@<TRIPOS>BOND
     1    11    12    1
     2    12    13   ar
     3    13    14   ar
     4    14    15   ar
     5    15    17    1
     6    17    18    1
     7    17    19    1
     8    15    16   ar
     9     3    16    1
    10     3     4    1
    11     5     4    1
    12     5     6    1
    13     6     7    1
    14     8     7    1
    15     8     9    1
    16     8    10    1
    17    10     2    1
    18     2     1    1
    19     1    20    1
    20    20    27    1
    21    27    28    1
    22    28    30    1
    23    30    31    2
    24    30    32    2
    25    30    33    1
    26    33    34   ar
    27    34    35   ar
    28    35    36   ar
    29    36    37   ar
    30    37    38   ar
    31    20    21    1
    32    21    22   ar
    33    22    23   ar
    34    23    24   ar
    35    24    25   ar
    36    25    26   ar
    37    16    12   ar
    38     9     3    1
    39    38    33   ar
    40    26    21   ar
    41    10     5    1
    42    28    29    1
@<TRIPOS>MOLECULE
*****
 38 42 0 0 0
SMALL
GASTEIGER

@<TRIPOS>ATOM
      1 C         141.9969  140.3908  165.8032 C.3     1  UNL1        0.0231
      2 C         141.3327  140.2463  167.1404 C.3     1  UNL1        0.0724
      3 C         141.4252  140.3124  167.2487 C.3     1  UNL1        0.0904
      4 C         140.3056  141.2783  167.5007 C.3     1  UNL1        0.0386
      5 C         140.4609  142.3531  168.5354 C.3     1  UNL1        0.0594
      6 C         141.0358  143.2224  169.6142 C.3     1  UNL1        0.0174
      7 C         142.4183  142.7275  169.9206 C.3     1  UNL1        0.0174
      8 C         142.6978  141.5524  169.0313 C.3     1  UNL1        0.0594
      9 C         142.7001  140.4213  168.0315 C.3     1  UNL1        0.0386
     10 N         141.4881  141.3210  168.1751 N.3     1  UNL1       -0.2751
     11 C         143.8210  138.4606  166.0320 C.3     1  UNL1        0.0738
     12 C         142.3711  138.3864  165.6547 C.ar    1  UNL1        0.1433
     13 N         141.7679  137.4480  164.6519 N.ar    1  UNL1       -0.1337
     14 N         140.2939  137.7193  164.5914 N.ar    1  UNL1       -0.1337
     15 C         139.9861  138.8252  165.5567 C.ar    1  UNL1        0.1425
     16 N         141.2699  139.2376  166.2139 N.ar    1  UNL1       -0.3039
     17 C         138.6322  139.4153  165.8189 C.3     1  UNL1        0.0588
     18 C         137.7916  138.8925  166.9458 C.3     1  UNL1        0.0080
     19 C         138.1188  140.5284  164.9541 C.3     1  UNL1        0.0080
     20 C         142.2474  141.7558  165.2340 C.3     1  UNL1        0.0411
     21 C         141.1770  142.4460  164.4416 C.ar    1  UNL1       -0.0211
     22 C         140.8116  141.9423  163.0767 C.ar    1  UNL1       -0.0042
     23 C         139.7411  142.6325  162.2843 C.ar    1  UNL1       -0.0003
     24 C         139.0361  143.8264  162.8568 C.ar    1  UNL1       -0.0000
     25 C         139.4015  144.3300  164.2217 C.ar    1  UNL1       -0.0003
     26 C         140.4719  143.6398  165.0141 C.ar    1  UNL1       -0.0042
     27 C         143.5684  142.4307  165.4570 C.3     1  UNL1        0.0958
     28 N         144.7479  142.0712  164.6029 N.3     1  UNL1       -0.1791
     29 H         145.1585  141.2295  165.0070 H       1  UNL1        0.1488
     30 S         144.5597  141.8014  163.1394 S.O2    1  UNL1        0.0602
     31 O         144.8285  140.3444  163.3734 O.2     1  UNL1       -0.1530
     32 O         144.2909  143.2585  162.9054 O.2     1  UNL1       -0.1530
     33 C         144.3715  141.5317  161.6759 C.ar    1  UNL1        0.1219
     34 C         144.5989  142.6266  160.6761 C.ar    1  UNL1        0.0199
     35 C         144.4107  142.3569  159.2126 C.ar    1  UNL1        0.0014
     36 C         143.9951  140.9922  158.7489 C.ar    1  UNL1        0.0001
     37 C         143.7677  139.8973  159.7487 C.ar    1  UNL1        0.0014
     38 C         143.9559  140.1671  161.2122 C.ar    1  UNL1        0.0199
@<TRIPOS>BOND
     1    11    12    1
     2    12    13   ar
     3    13    14   ar
     4    14    15   ar
     5    15    17    1
     6    17    18    1
     7    17    19    1
     8    15    16   ar
     9     3    16    1
    10     3     4    1
    11     5     4    1
    12     5     6    1
    13     6     7    1
    14     8     7    1
    15     8     9    1
    16     8    10    1
    17    10     2    1
    18     2     1    1
    19     1    20    1
    20    20    27    1
    21    27    28    1
    22    28    30    1
    23    30    31    2
    24    30    32    2
    25    30    33    1
    26    33    34   ar
    27    34    35   ar
    28    35    36   ar
    29    36    37   ar
    30    37    38   ar
    31    20    21    1
    32    21    22   ar
    33    22    23   ar
    34    23    24   ar
    35    24    25   ar
    36    25    26   ar
    37    16    12   ar
    38     9     3    1
    39    38    33   ar
    40    26    21   ar
    41    10     5    1
    42    28    29    1
@<TRIPOS>MOLECULE
*****
 38 42 0 0 0
SMALL
GASTEIGER

@<TRIPOS>ATOM
      1 C         140.5494  140.8236  165.5270 C.3     1  UNL1        0.0231
      2 C         140.1297  141.3387  166.8719 C.3     1  UNL1        0.0724
      3 C         140.2104  141.2458  166.9695 C.3     1  UNL1        0.0904
      4 C         140.7141  142.4999  167.6202 C.3     1  UNL1        0.0386
      5 C         141.6570  142.4146  168.7837 C.3     1  UNL1        0.0594
      6 C         142.5422  141.8707  169.8656 C.3     1  UNL1        0.0174
      7 C         142.5049  140.3733  169.7860 C.3     1  UNL1        0.0174
      8 C         141.5966  139.9917  168.6548 C.3     1  UNL1        0.0594
      9 C         140.6496  139.9063  167.4823 C.3     1  UNL1        0.0386
     10 N         141.0726  141.2533  168.0354 N.3     1  UNL1       -0.2751
     11 C         139.5827  143.9158  165.2011 C.3     1  UNL1        0.0738
     12 C         138.9790  142.5584  164.9931 C.ar    1  UNL1        0.1433
     13 N         137.9808  142.1899  163.9358 N.ar    1  UNL1       -0.1337
     14 N         137.6525  140.7351  164.0952 N.ar    1  UNL1       -0.1337
     15 C         138.4476  140.2043  165.2510 C.ar    1  UNL1        0.1425
     16 N         139.2675  141.3311  165.8059 N.ar    1  UNL1       -0.3039
     17 C         138.4267  138.7942  165.7621 C.3     1  UNL1        0.0588
     18 C         137.6548  138.4578  167.0035 C.3     1  UNL1        0.0080
     19 C         139.1777  137.7204  165.0319 C.3     1  UNL1        0.0080
     20 C         142.0000  140.8184  165.1452 C.3     1  UNL1        0.0411
     21 C         142.6736  142.0960  164.7402 C.ar    1  UNL1       -0.0211
     22 C         143.7062  142.7156  165.6347 C.ar    1  UNL1       -0.0042
     23 C         144.3799  143.9932  165.2298 C.ar    1  UNL1       -0.0003
     24 C         144.0209  144.6512  163.9304 C.ar    1  UNL1       -0.0000
     25 C         142.9883  144.0317  163.0361 C.ar    1  UNL1       -0.0003
     26 C         142.3146  142.7541  163.4410 C.ar    1  UNL1       -0.0042
     27 C         142.7771  139.5356  165.1684 C.3     1  UNL1        0.0958
     28 N         143.9398  139.3461  164.2399 N.3     1  UNL1       -0.1791
     29 H         144.4085  138.4867  164.5264 H       1  UNL1        0.1488
     30 S         143.7095  139.2415  162.7614 S.O2    1  UNL1        0.0602
     31 O         144.7017  140.3421  162.5289 O.2     1  UNL1       -0.1530
     32 O         142.7172  138.1409  162.9938 O.2     1  UNL1       -0.1530
     33 C         143.4792  139.1369  161.2829 C.ar    1  UNL1        0.1219
     34 C         143.7487  140.3167  160.3964 C.ar    1  UNL1        0.0199
     35 C         143.5184  140.2121  158.9179 C.ar    1  UNL1        0.0014
     36 C         143.0186  138.9277  158.3258 C.ar    1  UNL1        0.0001
     37 C         142.7490  137.7479  159.2122 C.ar    1  UNL1        0.0014
     38 C         142.9794  137.8526  160.6907 C.ar    1  UNL1        0.0199
@<TRIPOS>BOND
     1    11    12    1
     2    12    13   ar
     3    13    14   ar
     4    14    15   ar
     5    15    17    1
     6    17    18    1
     7    17    19    1
     8    15    16   ar
     9     3    16    1
    10     3     4    1
    11     5     4    1
    12     5     6    1
    13     6     7    1
    14     8     7    1
    15     8     9    1
    16     8    10    1
    17    10     2    1
    18     2     1    1
    19     1    20    1
    20    20    27    1
    21    27    28    1
    22    28    30    1
    23    30    31    2
    24    30    32    2
    25    30    33    1
    26    33    34   ar
    27    34    35   ar
    28    35    36   ar
    29    36    37   ar
    30    37    38   ar
    31    20    21    1
    32    21    22   ar
    33    22    23   ar
    34    23    24   ar
    35    24    25   ar
    36    25    26   ar
    37    16    12   ar
    38     9     3    1
    39    38    33   ar
    40    26    21   ar
    41    10     5    1
    42    28    29    1
@<TRIPOS>MOLECULE
*****
 38 42 0 0 0
SMALL
GASTEIGER

@<TRIPOS>ATOM
      1 C         141.4249  140.1765  164.8711 C.3     1  UNL1        0.0231
      2 C         141.6062  139.2986  166.0738 C.3     1  UNL1        0.0724
      3 C         141.4973  139.3576  166.1703 C.3     1  UNL1        0.0904
      4 C         142.5736  139.4287  167.2127 C.3     1  UNL1        0.0386
      5 C         142.2588  139.9566  168.5810 C.3     1  UNL1        0.0594
      6 C         141.5192  140.5275  169.7545 C.3     1  UNL1        0.0174
      7 C         140.0947  140.7502  169.3408 C.3     1  UNL1        0.0174
      8 C         139.9539  140.3169  167.9116 C.3     1  UNL1        0.0594
      9 C         140.1062  139.8144  166.4962 C.3     1  UNL1        0.0386
     10 N         141.2914  139.8265  167.4420 N.3     1  UNL1       -0.2751
     11 C         144.4461  139.2842  164.7743 C.3     1  UNL1        0.0738
     12 C         143.1675  138.7959  164.1603 C.ar    1  UNL1        0.1433
     13 N         143.0199  138.1883  162.7968 N.ar    1  UNL1       -0.1337
     14 N         141.5733  137.8465  162.5959 N.ar    1  UNL1       -0.1337
     15 C         140.8268  138.2429  163.8351 C.ar    1  UNL1        0.1425
     16 N         141.8121  138.8297  164.8020 N.ar    1  UNL1       -0.3039
     17 C         139.3537  138.0810  164.0668 C.3     1  UNL1        0.0588
     18 C         138.8587  137.1067  165.0944 C.3     1  UNL1        0.0080
     19 C         138.3754  138.8933  163.2710 C.3     1  UNL1        0.0080
     20 C         141.5147  141.6673  165.0104 C.3     1  UNL1        0.0411
     21 C         140.2840  142.5106  164.8546 C.ar    1  UNL1       -0.0211
     22 C         140.0198  143.6356  165.8111 C.ar    1  UNL1       -0.0042
     23 C         138.7891  144.4790  165.6553 C.ar    1  UNL1       -0.0003
     24 C         137.8227  144.1974  164.5431 C.ar    1  UNL1       -0.0000
     25 C         138.0870  143.0725  163.5867 C.ar    1  UNL1       -0.0003
     26 C         139.3176  142.2291  163.7424 C.ar    1  UNL1       -0.0042
     27 C         142.8351  142.3149  165.3056 C.3     1  UNL1        0.0958
     28 N         143.5594  143.0663  164.2283 N.3     1  UNL1       -0.1791
     29 H         144.2523  142.4273  163.8384 H       1  UNL1        0.1488
     30 S         142.7968  143.6376  163.0698 S.O2    1  UNL1        0.0602
     31 O         143.0256  142.3733  162.2958 O.2     1  UNL1       -0.1530
     32 O         142.5680  144.9019  163.8439 O.2     1  UNL1       -0.1530
     33 C         142.0342  144.2088  161.9114 C.ar    1  UNL1        0.1219
     34 C         142.3896  143.8100  160.5096 C.ar    1  UNL1        0.0199
     35 C         141.6270  144.3813  159.3511 C.ar    1  UNL1        0.0014
     36 C         140.5089  145.3512  159.5943 C.ar    1  UNL1        0.0001
     37 C         140.1535  145.7499  160.9961 C.ar    1  UNL1        0.0014
     38 C         140.9161  145.1787  162.1545 C.ar    1  UNL1        0.0199
@<TRIPOS>BOND
     1    11    12    1
     2    12    13   ar
     3    13    14   ar
     4    14    15   ar
     5    15    17    1
     6    17    18    1
     7    17    19    1
     8    15    16   ar
     9     3    16    1
    10     3     4    1
    11     5     4    1
    12     5     6    1
    13     6     7    1
    14     8     7    1
    15     8     9    1
    16     8    10    1
    17    10     2    1
    18     2     1    1
    19     1    20    1
    20    20    27    1
    21    27    28    1
    22    28    30    1
    23    30    31    2
    24    30    32    2
    25    30    33    1
    26    33    34   ar
    27    34    35   ar
    28    35    36   ar
    29    36    37   ar
    30    37    38   ar
    31    20    21    1
    32    21    22   ar
    33    22    23   ar
    34    23    24   ar
    35    24    25   ar
    36    25    26   ar
    37    16    12   ar
    38     9     3    1
    39    38    33   ar
    40    26    21   ar
    41    10     5    1
    42    28    29    1
@<TRIPOS>MOLECULE
*****
 38 42 0 0 0
SMALL
GASTEIGER

@<TRIPOS>ATOM
      1 C         140.5898  141.7873  163.7255 C.3     1  UNL1        0.0231
      2 C         140.0127  141.7602  162.3412 C.3     1  UNL1        0.0724
      3 C         139.8797  141.6771  162.3346 C.3     1  UNL1        0.0904
      4 C         140.6385  140.6759  161.5151 C.3     1  UNL1        0.0386
      5 C         139.9502  139.4412  161.0134 C.3     1  UNL1        0.0594
      6 C         138.9019  138.4038  160.7392 C.3     1  UNL1        0.0174
      7 C         137.6283  138.8471  161.3959 C.3     1  UNL1        0.0174
      8 C         137.8893  140.1584  162.0759 C.3     1  UNL1        0.0594
      9 C         138.4324  141.4436  162.6524 C.3     1  UNL1        0.0386
     10 N         139.3243  140.5255  161.8396 N.3     1  UNL1       -0.2751
     11 C         138.8295  143.6150  164.7411 C.3     1  UNL1        0.0738
     12 C         140.0853  143.8026  163.9424 C.ar    1  UNL1        0.1433
     13 N         141.0789  144.9139  164.1096 N.ar    1  UNL1       -0.1337
     14 N         142.1755  144.7099  163.1069 N.ar    1  UNL1       -0.1337
     15 C         141.8599  143.4726  162.3199 C.ar    1  UNL1        0.1425
     16 N         140.5680  142.9119  162.8363 N.ar    1  UNL1       -0.3039
     17 C         142.6902  142.8971  161.2112 C.3     1  UNL1        0.0588
     18 C         142.3450  143.1964  159.7825 C.3     1  UNL1        0.0080
     19 C         143.8660  142.0222  161.5311 C.3     1  UNL1        0.0080
     20 C         141.0405  140.5126  164.3751 C.3     1  UNL1        0.0411
     21 C         140.0370  139.6055  165.0232 C.ar    1  UNL1       -0.0211
     22 C         139.1743  140.1169  166.1388 C.ar    1  UNL1       -0.0042
     23 C         138.1707  139.2098  166.7870 C.ar    1  UNL1       -0.0003
     24 C         138.0299  137.7913  166.3197 C.ar    1  UNL1       -0.0000
     25 C         138.8926  137.2800  165.2042 C.ar    1  UNL1       -0.0003
     26 C         139.8962  138.1871  164.5560 C.ar    1  UNL1       -0.0042
     27 C         142.4948  140.1450  164.3766 C.3     1  UNL1        0.0958
     28 N         143.4372  140.8164  165.3312 N.3     1  UNL1       -0.1791
     29 H         143.9303  141.5352  164.8015 H       1  UNL1        0.1488
     30 S         142.9064  141.4779  166.5684 S.O2    1  UNL1        0.0602
     31 O         142.7540  140.1357  167.2206 O.2     1  UNL1       -0.1530
     32 O         143.0587  142.8200  165.9162 O.2     1  UNL1       -0.1530
     33 C         142.3756  142.1394  167.8056 C.ar    1  UNL1        0.1219
     34 C         140.9596  142.6331  167.8435 C.ar    1  UNL1        0.0199
     35 C         140.4288  143.2945  169.0807 C.ar    1  UNL1        0.0014
     36 C         141.3139  143.4623  170.2801 C.ar    1  UNL1        0.0001
     37 C         142.7299  142.9686  170.2421 C.ar    1  UNL1        0.0014
     38 C         143.2607  142.3072  169.0049 C.ar    1  UNL1        0.0199
@<TRIPOS>BOND
     1    11    12    1
     2    12    13   ar
     3    13    14   ar
     4    14    15   ar
     5    15    17    1
     6    17    18    1
     7    17    19    1
     8    15    16   ar
     9     3    16    1
    10     3     4    1
    11     5     4    1
    12     5     6    1
    13     6     7    1
    14     8     7    1
    15     8     9    1
    16     8    10    1
    17    10     2    1
    18     2     1    1
    19     1    20    1
    20    20    27    1
    21    27    28    1
    22    28    30    1
    23    30    31    2
    24    30    32    2
    25    30    33    1
    26    33    34   ar
    27    34    35   ar
    28    35    36   ar
    29    36    37   ar
    30    37    38   ar
    31    20    21    1
    32    21    22   ar
    33    22    23   ar
    34    23    24   ar
    35    24    25   ar
    36    25    26   ar
    37    16    12   ar
    38     9     3    1
    39    38    33   ar
    40    26    21   ar
    41    10     5    1
    42    28    29    1
@<TRIPOS>MOLECULE
*****
 38 42 0 0 0
SMALL
GASTEIGER

@<TRIPOS>ATOM
      1 C         140.5991  140.2071  165.4111 C.3     1  UNL1        0.0231
      2 C         140.6964  139.8979  166.8757 C.3     1  UNL1        0.0724
      3 C         140.7822  140.0202  166.9241 C.3     1  UNL1        0.0904
      4 C         139.7629  140.2045  168.0091 C.3     1  UNL1        0.0386
      5 C         139.9176  141.3180  169.0021 C.3     1  UNL1        0.0594
      6 C         140.4559  142.5100  169.7366 C.3     1  UNL1        0.0174
      7 C         141.7221  142.9401  169.0571 C.3     1  UNL1        0.0174
      8 C         141.9663  142.0140  167.9027 C.3     1  UNL1        0.0594
      9 C         141.9560  140.9495  166.8322 C.3     1  UNL1        0.0386
     10 N         140.8510  141.0115  167.8687 N.3     1  UNL1       -0.2751
     11 C         137.9750  138.6007  166.0555 C.3     1  UNL1        0.0738
     12 C         139.3373  138.2542  165.5318 C.ar    1  UNL1        0.1433
     13 N         139.6484  137.1943  164.5169 N.ar    1  UNL1       -0.1337
     14 N         141.1309  137.1918  164.2890 N.ar    1  UNL1       -0.1337
     15 C         141.7361  138.2500  165.1629 C.ar    1  UNL1        0.1425
     16 N         140.6276  138.9066  165.9310 N.ar    1  UNL1       -0.3039
     17 C         143.1939  138.5917  165.2529 C.3     1  UNL1        0.0588
     18 C         143.8465  139.3873  164.1616 C.3     1  UNL1        0.0080
     19 C         143.9991  138.1378  166.4344 C.3     1  UNL1        0.0080
     20 C         140.0243  141.5162  164.9576 C.3     1  UNL1        0.0411
     21 C         140.8840  142.4960  164.2153 C.ar    1  UNL1       -0.0211
     22 C         141.6432  142.0560  162.9986 C.ar    1  UNL1       -0.0042
     23 C         142.5029  143.0357  162.2562 C.ar    1  UNL1       -0.0003
     24 C         142.6035  144.4553  162.7305 C.ar    1  UNL1       -0.0000
     25 C         141.8443  144.8951  163.9471 C.ar    1  UNL1       -0.0003
     26 C         140.9846  143.9155  164.6895 C.ar    1  UNL1       -0.0042
     27 C         138.5896  141.8458  165.2464 C.3     1  UNL1        0.0958
     28 N         137.5188  141.4510  164.2731 N.3     1  UNL1       -0.1791
     29 H         136.7309  142.0791  164.4314 H       1  UNL1        0.1488
     30 S         137.7998  141.4718  162.7998 S.O2    1  UNL1        0.0602
     31 O         137.9236  139.9769  162.8024 O.2     1  UNL1       -0.1530
     32 O         137.6760  142.9666  162.7972 O.2     1  UNL1       -0.1530
     33 C         138.0808  141.4925  161.3265 C.ar    1  UNL1        0.1219
     34 C         138.6636  142.7201  160.6913 C.ar    1  UNL1        0.0199
     35 C         138.9446  142.7408  159.2180 C.ar    1  UNL1        0.0014
     36 C         138.6428  141.5340  158.3799 C.ar    1  UNL1        0.0001
     37 C         138.0600  140.3064  159.0151 C.ar    1  UNL1        0.0014
     38 C         137.7790  140.2856  160.4884 C.ar    1  UNL1        0.0199
@<TRIPOS>BOND
     1    11    12    1
     2    12    13   ar
     3    13    14   ar
     4    14    15   ar
     5    15    17    1
     6    17    18    1
     7    17    19    1
     8    15    16   ar
     9     3    16    1
    10     3     4    1
    11     5     4    1
    12     5     6    1
    13     6     7    1
    14     8     7    1
    15     8     9    1
    16     8    10    1
    17    10     2    1
    18     2     1    1
    19     1    20    1
    20    20    27    1
    21    27    28    1
    22    28    30    1
    23    30    31    2
    24    30    32    2
    25    30    33    1
    26    33    34   ar
    27    34    35   ar
    28    35    36   ar
    29    36    37   ar
    30    37    38   ar
    31    20    21    1
    32    21    22   ar
    33    22    23   ar
    34    23    24   ar
    35    24    25   ar
    36    25    26   ar
    37    16    12   ar
    38     9     3    1
    39    38    33   ar
    40    26    21   ar
    41    10     5    1
    42    28    29    1
@<TRIPOS>MOLECULE
*****
 38 42 0 0 0
SMALL
GASTEIGER

@<TRIPOS>ATOM
      1 C         140.2487  142.2648  163.7515 C.3     1  UNL1        0.0231
      2 C         139.8220  141.7671  165.1007 C.3     1  UNL1        0.0724
      3 C         139.9418  141.6851  165.1607 C.3     1  UNL1        0.0904
      4 C         139.9692  142.6899  166.2740 C.3     1  UNL1        0.0386
      5 C         140.9762  142.5588  167.3780 C.3     1  UNL1        0.0594
      6 C         142.1038  142.0523  168.2276 C.3     1  UNL1        0.0174
      7 C         142.6535  140.8163  167.5794 C.3     1  UNL1        0.0174
      8 C         141.8657  140.5590  166.3291 C.3     1  UNL1        0.0594
      9 C         140.9214  140.5492  165.1513 C.3     1  UNL1        0.0386
     10 N         140.8291  141.6360  166.2047 N.3     1  UNL1       -0.2751
     11 C         137.9258  144.2084  164.6929 C.3     1  UNL1        0.0738
     12 C         138.0081  142.9760  163.8416 C.ar    1  UNL1        0.1433
     13 N         137.1783  142.6870  162.6260 N.ar    1  UNL1       -0.1337
     14 N         137.5920  141.3487  162.0897 N.ar    1  UNL1       -0.1337
     15 C         138.6776  140.8105  162.9738 C.ar    1  UNL1        0.1425
     16 N         138.9348  141.8162  164.0567 N.ar    1  UNL1       -0.3039
     17 C         139.3823  139.4971  162.8050 C.3     1  UNL1        0.0588
     18 C         140.5081  139.3711  161.8218 C.3     1  UNL1        0.0080
     19 C         138.9611  138.3098  163.6192 C.3     1  UNL1        0.0080
     20 C         141.3936  143.2267  163.6347 C.3     1  UNL1        0.0411
     21 C         142.7987  142.7116  163.5331 C.ar    1  UNL1       -0.0211
     22 C         143.1958  141.8384  162.3797 C.ar    1  UNL1       -0.0042
     23 C         144.6009  141.3232  162.2781 C.ar    1  UNL1       -0.0003
     24 C         145.6089  141.6812  163.3297 C.ar    1  UNL1       -0.0000
     25 C         145.2118  142.5543  164.4830 C.ar    1  UNL1       -0.0003
     26 C         143.8067  143.0695  164.5846 C.ar    1  UNL1       -0.0042
     27 C         141.1335  144.7040  163.6194 C.3     1  UNL1        0.0958
     28 N         141.3490  145.4905  162.3604 N.3     1  UNL1       -0.1791
     29 H         142.3577  145.5783  162.2371 H       1  UNL1        0.1488
     30 S         140.7956  144.9896  161.0593 S.O2    1  UNL1        0.0602
     31 O         139.4038  145.2696  161.5435 O.2     1  UNL1       -0.1530
     32 O         142.1874  144.7097  160.5751 O.2     1  UNL1       -0.1530
     33 C         140.2422  144.4888  159.7582 C.ar    1  UNL1        0.1219
     34 C         139.4651  143.2064  159.7177 C.ar    1  UNL1        0.0199
     35 C         138.9117  142.7055  158.4166 C.ar    1  UNL1        0.0014
     36 C         139.1355  143.4870  157.1559 C.ar    1  UNL1        0.0001
     37 C         139.9126  144.7694  157.1964 C.ar    1  UNL1        0.0014
     38 C         140.4660  145.2703  158.4975 C.ar    1  UNL1        0.0199
@<TRIPOS>BOND
     1    11    12    1
     2    12    13   ar
     3    13    14   ar
     4    14    15   ar
     5    15    17    1
     6    17    18    1
     7    17    19    1
     8    15    16   ar
     9     3    16    1
    10     3     4    1
    11     5     4    1
    12     5     6    1
    13     6     7    1
    14     8     7    1
    15     8     9    1
    16     8    10    1
    17    10     2    1
    18     2     1    1
    19     1    20    1
    20    20    27    1
    21    27    28    1
    22    28    30    1
    23    30    31    2
    24    30    32    2
    25    30    33    1
    26    33    34   ar
    27    34    35   ar
    28    35    36   ar
    29    36    37   ar
    30    37    38   ar
    31    20    21    1
    32    21    22   ar
    33    22    23   ar
    34    23    24   ar
    35    24    25   ar
    36    25    26   ar
    37    16    12   ar
    38     9     3    1
    39    38    33   ar
    40    26    21   ar
    41    10     5    1
    42    28    29    1
@<TRIPOS>MOLECULE
*****
 38 42 0 0 0
SMALL
GASTEIGER

@<TRIPOS>ATOM
      1 C         141.9589  141.1248  163.5800 C.3     1  UNL1        0.0231
      2 C         141.9812  141.0356  162.0828 C.3     1  UNL1        0.0724
      3 C         141.9001  141.1589  162.0291 C.3     1  UNL1        0.0904
      4 C         140.9766  140.1694  161.3825 C.3     1  UNL1        0.0386
      5 C         139.8010  140.6509  160.5849 C.3     1  UNL1        0.0594
      6 C         138.8028  141.5477  159.9146 C.3     1  UNL1        0.0174
      7 C         139.1905  142.9682  160.2006 C.3     1  UNL1        0.0174
      8 C         140.4284  142.9493  161.0477 C.3     1  UNL1        0.0594
      9 C         141.6481  142.6298  161.8779 C.3     1  UNL1        0.0386
     10 N         140.8057  141.5171  161.2851 N.3     1  UNL1       -0.2751
     11 C         142.6537  138.0441  162.6455 C.3     1  UNL1        0.0738
     12 C         143.4221  139.2457  163.1101 C.ar    1  UNL1        0.1433
     13 N         144.6717  139.2267  163.9396 N.ar    1  UNL1       -0.1337
     14 N         145.0976  140.6465  164.1689 N.ar    1  UNL1       -0.1337
     15 C         144.1112  141.5431  163.4812 C.ar    1  UNL1        0.1425
     16 N         143.0757  140.6774  162.8268 N.ar    1  UNL1       -0.3039
     17 C         144.1530  143.0423  163.4528 C.3     1  UNL1        0.0588
     18 C         143.7653  143.8266  164.6712 C.3     1  UNL1        0.0080
     19 C         144.5825  143.7572  162.2060 C.3     1  UNL1        0.0080
     20 C         140.6709  140.9305  164.3237 C.3     1  UNL1        0.0411
     21 C         139.7141  142.0754  164.4787 C.ar    1  UNL1       -0.0211
     22 C         140.1356  143.3099  165.2192 C.ar    1  UNL1       -0.0042
     23 C         139.1790  144.4548  165.3742 C.ar    1  UNL1       -0.0003
     24 C         137.8008  144.3652  164.7887 C.ar    1  UNL1       -0.0000
     25 C         137.3794  143.1307  164.0482 C.ar    1  UNL1       -0.0003
     26 C         138.3360  141.9858  163.8932 C.ar    1  UNL1       -0.0042
     27 C         140.3394  139.5912  164.9125 C.3     1  UNL1        0.0958
     28 N         140.9356  139.1814  166.2265 N.3     1  UNL1       -0.1791
     29 H         141.7965  138.6771  166.0147 H       1  UNL1        0.1488
     30 S         141.2837  140.2219  167.2493 S.O2    1  UNL1        0.0602
     31 O         139.8343  140.3475  167.6148 O.2     1  UNL1       -0.1530
     32 O         142.7330  140.0963  166.8838 O.2     1  UNL1       -0.1530
     33 C         141.6317  141.2624  168.2721 C.ar    1  UNL1        0.1219
     34 C         140.5954  142.2503  168.7197 C.ar    1  UNL1        0.0199
     35 C         140.9435  143.2908  169.7425 C.ar    1  UNL1        0.0014
     36 C         142.3279  143.3436  170.3177 C.ar    1  UNL1        0.0001
     37 C         143.3642  142.3557  169.8700 C.ar    1  UNL1        0.0014
     38 C         143.0161  141.3152  168.8472 C.ar    1  UNL1        0.0199
@<TRIPOS>BOND
     1    11    12    1
     2    12    13   ar
     3    13    14   ar
     4    14    15   ar
     5    15    17    1
     6    17    18    1
     7    17    19    1
     8    15    16   ar
     9     3    16    1
    10     3     4    1
    11     5     4    1
    12     5     6    1
    13     6     7    1
    14     8     7    1
    15     8     9    1
    16     8    10    1
    17    10     2    1
    18     2     1    1
    19     1    20    1
    20    20    27    1
    21    27    28    1
    22    28    30    1
    23    30    31    2
    24    30    32    2
    25    30    33    1
    26    33    34   ar
    27    34    35   ar
    28    35    36   ar
    29    36    37   ar
    30    37    38   ar
    31    20    21    1
    32    21    22   ar
    33    22    23   ar
    34    23    24   ar
    35    24    25   ar
    36    25    26   ar
    37    16    12   ar
    38     9     3    1
    39    38    33   ar
    40    26    21   ar
    41    10     5    1
    42    28    29    1
