@<TRIPOS>MOLECULE
*****
 39 44 0 0 0
SMALL
GASTEIGER

@<TRIPOS>ATOM
      1 N         141.9842  138.0350  158.6692 N.ar    1  UNL1       -0.2264
      2 C         142.1944  137.6793  160.1112 C.ar    1  UNL1        0.1212
      3 C         141.2016  138.4516  160.9285 C.ar    1  UNL1        0.1260
      4 N         140.9412  138.5039  162.4048 N.ar    1  UNL1       -0.2248
      5 C         139.8570  139.3892  162.9442 C.ar    1  UNL1        0.1472
      6 N         139.0334  140.2222  162.0074 N.ar    1  UNL1       -0.2792
      7 C         139.2938  140.1699  160.5311 C.ar    1  UNL1        0.2829
      8 O         138.4701  141.0028  159.5942 O.2     1  UNL1       -0.2652
      9 C         140.3779  139.2846  159.9916 C.ar    1  UNL1        0.1762
     10 N         140.8616  139.0271  158.5953 N.ar    1  UNL1       -0.1586
     11 C         139.5966  139.4416  164.4205 C.ar    1  UNL1        0.0478
     12 C         138.4570  138.6638  165.0091 C.ar    1  UNL1        0.0058
     13 C         138.1966  138.7162  166.4854 C.ar    1  UNL1        0.0208
     14 C         139.0758  139.5463  167.3731 C.ar    1  UNL1        0.0984
     15 N         140.2154  140.3240  166.7845 N.ar    1  UNL1       -0.2480
     16 C         140.4758  140.2717  165.3082 C.ar    1  UNL1        0.0623
     17 C         141.6154  141.0494  164.7197 C.3     1  UNL1        0.0522
     18 C         143.7265  135.4722  156.1900 C.ar    1  UNL1        0.1401
     19 C         144.3130  136.4111  155.1778 C.ar    1  UNL1        0.0370
     20 C         144.1233  137.8912  155.3294 C.ar    1  UNL1        0.0047
     21 C         143.3470  138.4325  156.4933 C.ar    1  UNL1        0.0194
     22 C         142.7605  137.4937  157.5054 C.ar    1  UNL1        0.0859
     23 C         142.9502  136.0135  157.3538 C.ar    1  UNL1        0.0560
     24 O         143.9162  133.9920  156.0383 O.3     1  UNL1       -0.4754
     25 C         145.0212  132.5878  157.9244 C.3     1  UNL1        0.0512
     26 C         143.7899  133.0934  157.2328 C.3     1  UNL1        0.2055
     27 C         137.9493  141.1075  162.5467 C.3     1  UNL1        0.1119
     28 C         138.3012  142.4106  163.2010 C.3     1  UNL1        0.0388
     29 C         137.4748  142.9238  164.3428 C.3     1  UNL1        0.0048
     30 C         137.8267  144.2269  164.9972 C.3     1  UNL1        0.0174
     31 C         139.0050  145.0168  164.5097 C.3     1  UNL1        0.0722
     32 N         139.8314  144.5035  163.3678 N.3     1  UNL1       -0.2706
     33 C         139.4795  143.2005  162.7136 C.3     1  UNL1        0.0741
     34 C         141.0098  145.2935  162.8804 C.3     1  UNL1        0.1020
     35 C         142.3789  144.6808  162.8894 C.3     1  UNL1        0.1312
     36 C         143.1717  144.3119  164.1082 C.3     1  UNL1        0.0336
     37 C         144.4784  143.7325  163.6533 C.3     1  UNL1        0.0346
     38 C         144.4933  143.7434  162.1534 C.3     1  UNL1        0.1422
     39 O         143.1957  144.3294  161.6813 O.3     1  UNL1       -0.3548
@<TRIPOS>BOND
     1    25    26    1
     2    26    24    1
     3    24    18    1
     4    18    19   ar
     5    19    20   ar
     6    20    21   ar
     7    21    22   ar
     8    22     1    1
     9     1     2   ar
    10     2     3   ar
    11     3     4   ar
    12     4     5   ar
    13     5    11    1
    14    11    12   ar
    15    12    13   ar
    16    13    14   ar
    17    14    15   ar
    18    15    16   ar
    19    16    17    1
    20     5     6   ar
    21     6    27    1
    22    28    27    1
    23    28    29    1
    24    29    30    1
    25    30    31    1
    26    31    32    1
    27    32    34    1
    28    35    34    1
    29    35    36    1
    30    36    37    1
    31    37    38    1
    32    38    39    1
    33    32    33    1
    34     6     7   ar
    35     7     8    2
    36     7     9   ar
    37     9    10   ar
    38    22    23   ar
    39    23    18   ar
    40    10     1   ar
    41     9     3   ar
    42    16    11   ar
    43    33    28    1
    44    39    35    1
@<TRIPOS>MOLECULE
*****
 39 44 0 0 0
SMALL
GASTEIGER

@<TRIPOS>ATOM
      1 N         140.4789  145.9432  157.9550 N.ar    1  UNL1       -0.2264
      2 C         141.8070  145.3074  158.2410 C.ar    1  UNL1        0.1212
      3 C         141.7293  144.6593  159.5915 C.ar    1  UNL1        0.1260
      4 N         142.7339  143.8852  160.3926 N.ar    1  UNL1       -0.2248
      5 C         142.3623  143.3465  161.7423 C.ar    1  UNL1        0.1472
      6 N         140.9863  143.5818  162.2909 N.ar    1  UNL1       -0.2792
      7 C         139.9817  144.3558  161.4899 C.ar    1  UNL1        0.2829
      8 O         138.6056  144.5911  162.0385 O.2     1  UNL1       -0.2652
      9 C         140.3532  144.8945  160.1402 C.ar    1  UNL1        0.1762
     10 N         139.5804  145.6881  159.1287 N.ar    1  UNL1       -0.1586
     11 C         143.3669  142.5724  162.5435 C.ar    1  UNL1        0.0478
     12 C         143.6076  141.1223  162.2448 C.ar    1  UNL1        0.0058
     13 C         144.6121  140.3483  163.0459 C.ar    1  UNL1        0.0208
     14 C         145.3760  141.0244  164.1456 C.ar    1  UNL1        0.0984
     15 N         145.1354  142.4745  164.4442 N.ar    1  UNL1       -0.2480
     16 C         144.1308  143.2485  163.6432 C.ar    1  UNL1        0.0623
     17 C         143.8902  144.6987  163.9418 C.3     1  UNL1        0.0522
     18 C         138.8699  148.6716  155.5640 C.ar    1  UNL1        0.1401
     19 C         139.3825  148.2170  154.2296 C.ar    1  UNL1        0.0370
     20 C         140.2605  147.0044  154.1370 C.ar    1  UNL1        0.0047
     21 C         140.6260  146.2465  155.3789 C.ar    1  UNL1        0.0194
     22 C         140.1134  146.7011  156.7132 C.ar    1  UNL1        0.0859
     23 C         139.2354  147.9138  156.8058 C.ar    1  UNL1        0.0560
     24 O         137.9919  149.8843  155.6566 O.3     1  UNL1       -0.4754
     25 C         138.4510  152.3242  154.8913 C.3     1  UNL1        0.0512
     26 C         138.5991  151.2324  155.9091 C.3     1  UNL1        0.2055
     27 C         140.6147  143.0430  163.6407 C.3     1  UNL1        0.1119
     28 C         139.8954  141.7316  163.7527 C.3     1  UNL1        0.0388
     29 C         138.9845  141.4727  164.9160 C.3     1  UNL1        0.0048
     30 C         138.2652  140.1612  165.0281 C.3     1  UNL1        0.0174
     31 C         138.4568  139.1085  163.9769 C.3     1  UNL1        0.0722
     32 N         139.3678  139.3674  162.8135 N.3     1  UNL1       -0.2706
     33 C         140.0870  140.6788  162.7015 C.3     1  UNL1        0.0741
     34 C         139.5594  138.3146  161.7623 C.3     1  UNL1        0.1020
     35 C         140.8915  138.1592  161.0906 C.3     1  UNL1        0.1312
     36 C         142.1666  137.7252  161.7509 C.3     1  UNL1        0.0336
     37 C         143.2456  137.7082  160.7092 C.3     1  UNL1        0.0346
     38 C         142.6376  138.1317  159.4050 C.3     1  UNL1        0.1422
     39 O         141.1827  138.4104  159.6407 O.3     1  UNL1       -0.3548
@<TRIPOS>BOND
     1    25    26    1
     2    26    24    1
     3    24    18    1
     4    18    19   ar
     5    19    20   ar
     6    20    21   ar
     7    21    22   ar
     8    22     1    1
     9     1     2   ar
    10     2     3   ar
    11     3     4   ar
    12     4     5   ar
    13     5    11    1
    14    11    12   ar
    15    12    13   ar
    16    13    14   ar
    17    14    15   ar
    18    15    16   ar
    19    16    17    1
    20     5     6   ar
    21     6    27    1
    22    28    27    1
    23    28    29    1
    24    29    30    1
    25    30    31    1
    26    31    32    1
    27    32    34    1
    28    35    34    1
    29    35    36    1
    30    36    37    1
    31    37    38    1
    32    38    39    1
    33    32    33    1
    34     6     7   ar
    35     7     8    2
    36     7     9   ar
    37     9    10   ar
    38    22    23   ar
    39    23    18   ar
    40    10     1   ar
    41     9     3   ar
    42    16    11   ar
    43    33    28    1
    44    39    35    1
@<TRIPOS>MOLECULE
*****
 39 44 0 0 0
SMALL
GASTEIGER

@<TRIPOS>ATOM
      1 N         140.0662  144.9905  158.1692 N.ar    1  UNL1       -0.2264
      2 C         140.7217  145.3909  159.4576 C.ar    1  UNL1        0.1212
      3 C         140.3566  144.3745  160.4987 C.ar    1  UNL1        0.1260
      4 N         140.7127  144.2528  161.9507 N.ar    1  UNL1       -0.2248
      5 C         140.1876  143.1024  162.7577 C.ar    1  UNL1        0.1472
      6 N         139.3067  142.0740  162.1127 N.ar    1  UNL1       -0.2792
      7 C         138.9507  142.1958  160.6607 C.ar    1  UNL1        0.2829
      8 O         138.0697  141.1673  160.0157 O.2     1  UNL1       -0.2652
      9 C         139.4756  143.3460  159.8537 C.ar    1  UNL1        0.1762
     10 N         139.2962  143.7267  158.4140 N.ar    1  UNL1       -0.1586
     11 C         140.5437  142.9807  164.2099 C.ar    1  UNL1        0.0478
     12 C         141.8454  142.3538  164.6129 C.ar    1  UNL1        0.0058
     13 C         142.2014  142.2320  166.0649 C.ar    1  UNL1        0.0208
     14 C         141.2557  142.7371  167.1139 C.ar    1  UNL1        0.0984
     15 N         139.9539  143.3640  166.7109 N.ar    1  UNL1       -0.2480
     16 C         139.5979  143.4858  165.2589 C.ar    1  UNL1        0.0623
     17 C         138.2962  144.1126  164.8559 C.3     1  UNL1        0.0522
     18 C         139.4996  147.7357  155.3598 C.ar    1  UNL1        0.1401
     19 C         140.3589  147.1936  154.2563 C.ar    1  UNL1        0.0370
     20 C         141.1207  145.9172  154.4571 C.ar    1  UNL1        0.0047
     21 C         141.0231  145.1828  155.7614 C.ar    1  UNL1        0.0194
     22 C         140.1638  145.7249  156.8649 C.ar    1  UNL1        0.0859
     23 C         139.4020  147.0013  156.6641 C.ar    1  UNL1        0.0560
     24 O         138.7377  149.0121  155.1590 O.3     1  UNL1       -0.4754
     25 C         138.8985  151.3626  156.2542 C.3     1  UNL1        0.0512
     26 C         138.4812  149.9234  156.3225 C.3     1  UNL1        0.2055
     27 C         138.7817  140.9237  162.9197 C.3     1  UNL1        0.1119
     28 C         139.6137  139.6879  163.0936 C.3     1  UNL1        0.0388
     29 C         138.9973  138.4418  163.6569 C.3     1  UNL1        0.0048
     30 C         139.8294  137.2058  163.8307 C.3     1  UNL1        0.0174
     31 C         141.2779  137.2161  163.4413 C.3     1  UNL1        0.0722
     32 N         141.8944  138.4622  162.8780 N.3     1  UNL1       -0.2706
     33 C         141.0623  139.6980  162.7042 C.3     1  UNL1        0.0741
     34 C         143.3430  138.4724  162.4886 C.3     1  UNL1        0.1020
     35 C         144.1863  139.6809  162.7683 C.3     1  UNL1        0.1312
     36 C         144.9613  139.9433  164.0256 C.3     1  UNL1        0.0336
     37 C         145.6567  141.2638  163.8743 C.3     1  UNL1        0.0346
     38 C         145.3115  141.8174  162.5236 C.3     1  UNL1        0.1422
     39 O         144.4027  140.8392  161.8401 O.3     1  UNL1       -0.3548
@<TRIPOS>BOND
     1    25    26    1
     2    26    24    1
     3    24    18    1
     4    18    19   ar
     5    19    20   ar
     6    20    21   ar
     7    21    22   ar
     8    22     1    1
     9     1     2   ar
    10     2     3   ar
    11     3     4   ar
    12     4     5   ar
    13     5    11    1
    14    11    12   ar
    15    12    13   ar
    16    13    14   ar
    17    14    15   ar
    18    15    16   ar
    19    16    17    1
    20     5     6   ar
    21     6    27    1
    22    28    27    1
    23    28    29    1
    24    29    30    1
    25    30    31    1
    26    31    32    1
    27    32    34    1
    28    35    34    1
    29    35    36    1
    30    36    37    1
    31    37    38    1
    32    38    39    1
    33    32    33    1
    34     6     7   ar
    35     7     8    2
    36     7     9   ar
    37     9    10   ar
    38    22    23   ar
    39    23    18   ar
    40    10     1   ar
    41     9     3   ar
    42    16    11   ar
    43    33    28    1
    44    39    35    1
@<TRIPOS>MOLECULE
*****
 39 44 0 0 0
SMALL
GASTEIGER

@<TRIPOS>ATOM
      1 N         142.1966  137.9965  158.5050 N.ar    1  UNL1       -0.2264
      2 C         141.3730  139.2502  158.5085 C.ar    1  UNL1        0.1212
      3 C         141.2813  139.7405  159.9232 C.ar    1  UNL1        0.1260
      4 N         140.5986  140.9298  160.5309 N.ar    1  UNL1       -0.2248
      5 C         140.6827  141.1684  162.0095 C.ar    1  UNL1        0.1472
      6 N         141.4495  140.2178  162.8802 N.ar    1  UNL1       -0.2792
      7 C         142.1323  139.0284  162.2724 C.ar    1  UNL1        0.2829
      8 O         142.8991  138.0778  163.1432 O.2     1  UNL1       -0.2652
      9 C         142.0482  138.7898  160.7939 C.ar    1  UNL1        0.1762
     10 N         142.6138  137.7119  159.9174 N.ar    1  UNL1       -0.1586
     11 C         140.0000  142.3578  162.6173 C.ar    1  UNL1        0.0478
     12 C         140.7938  143.5825  162.9635 C.ar    1  UNL1        0.0058
     13 C         140.1111  144.7718  163.5713 C.ar    1  UNL1        0.0208
     14 C         138.6345  144.7364  163.8328 C.ar    1  UNL1        0.0984
     15 N         137.8406  143.5117  163.4866 N.ar    1  UNL1       -0.2480
     16 C         138.5234  142.3224  162.8788 C.ar    1  UNL1        0.0623
     17 C         137.7295  141.0977  162.5326 C.3     1  UNL1        0.0522
     18 C         143.4637  134.9733  156.2678 C.ar    1  UNL1        0.1401
     19 C         143.2334  135.5232  154.8914 C.ar    1  UNL1        0.0370
     20 C         142.6576  136.8975  154.7194 C.ar    1  UNL1        0.0047
     21 C         142.3120  137.7219  155.9240 C.ar    1  UNL1        0.0194
     22 C         142.5422  137.1720  157.3005 C.ar    1  UNL1        0.0859
     23 C         143.1180  135.7977  157.4724 C.ar    1  UNL1        0.0560
     24 O         144.0395  133.5990  156.4397 O.3     1  UNL1       -0.4754
     25 C         145.4697  132.0150  157.9215 C.3     1  UNL1        0.0512
     26 C         144.4789  133.1342  157.7966 C.3     1  UNL1        0.2055
     27 C         141.5337  140.4563  164.3587 C.3     1  UNL1        0.1119
     28 C         140.4697  139.9160  165.2674 C.3     1  UNL1        0.0388
     29 C         139.4809  138.9130  164.7512 C.3     1  UNL1        0.0048
     30 C         138.4168  138.3726  165.6599 C.3     1  UNL1        0.0174
     31 C         138.3415  138.8351  167.0848 C.3     1  UNL1        0.0722
     32 N         139.3303  139.8381  167.6010 N.3     1  UNL1       -0.2706
     33 C         140.3943  140.3785  166.6924 C.3     1  UNL1        0.0741
     34 C         139.2550  140.3006  169.0260 C.3     1  UNL1        0.1020
     35 C         140.2744  141.2646  169.5565 C.3     1  UNL1        0.1312
     36 C         140.3400  142.7327  169.2555 C.3     1  UNL1        0.0336
     37 C         141.5134  143.3052  169.9941 C.3     1  UNL1        0.0346
     38 C         142.1730  142.1911  170.7514 C.3     1  UNL1        0.1422
     39 O         141.4073  140.9299  170.4810 O.3     1  UNL1       -0.3548
@<TRIPOS>BOND
     1    25    26    1
     2    26    24    1
     3    24    18    1
     4    18    19   ar
     5    19    20   ar
     6    20    21   ar
     7    21    22   ar
     8    22     1    1
     9     1     2   ar
    10     2     3   ar
    11     3     4   ar
    12     4     5   ar
    13     5    11    1
    14    11    12   ar
    15    12    13   ar
    16    13    14   ar
    17    14    15   ar
    18    15    16   ar
    19    16    17    1
    20     5     6   ar
    21     6    27    1
    22    28    27    1
    23    28    29    1
    24    29    30    1
    25    30    31    1
    26    31    32    1
    27    32    34    1
    28    35    34    1
    29    35    36    1
    30    36    37    1
    31    37    38    1
    32    38    39    1
    33    32    33    1
    34     6     7   ar
    35     7     8    2
    36     7     9   ar
    37     9    10   ar
    38    22    23   ar
    39    23    18   ar
    40    10     1   ar
    41     9     3   ar
    42    16    11   ar
    43    33    28    1
    44    39    35    1
@<TRIPOS>MOLECULE
*****
 39 44 0 0 0
SMALL
GASTEIGER

@<TRIPOS>ATOM
      1 N         140.5984  145.6707  158.1476 N.ar    1  UNL1       -0.2264
      2 C         141.7445  144.7162  158.3067 C.ar    1  UNL1        0.1212
      3 C         141.7666  144.2522  159.7330 C.ar    1  UNL1        0.1260
      4 N         142.6716  143.3079  160.4673 N.ar    1  UNL1       -0.2248
      5 C         142.4441  143.0314  161.9240 C.ar    1  UNL1        0.1472
      6 N         141.3117  143.6991  162.6463 N.ar    1  UNL1       -0.2792
      7 C         140.4067  144.6434  161.9119 C.ar    1  UNL1        0.2829
      8 O         139.2743  145.3111  162.6342 O.2     1  UNL1       -0.2652
      9 C         140.6342  144.9199  160.4553 C.ar    1  UNL1        0.1762
     10 N         139.9122  145.7966  159.4754 N.ar    1  UNL1       -0.1586
     11 C         143.3492  142.0871  162.6584 C.ar    1  UNL1        0.0478
     12 C         144.5783  142.6066  163.3436 C.ar    1  UNL1        0.0058
     13 C         145.4833  141.6623  164.0779 C.ar    1  UNL1        0.0208
     14 C         145.1592  140.1985  164.1271 C.ar    1  UNL1        0.0984
     15 N         143.9301  139.6791  163.4420 N.ar    1  UNL1       -0.2480
     16 C         143.0251  140.6233  162.7077 C.ar    1  UNL1        0.0623
     17 C         141.7960  140.1039  162.0225 C.3     1  UNL1        0.0522
     18 C         138.9180  148.2804  155.6746 C.ar    1  UNL1        0.1401
     19 C         139.4248  147.7852  154.3526 C.ar    1  UNL1        0.0370
     20 C         140.3228  146.5850  154.2955 C.ar    1  UNL1        0.0047
     21 C         140.7140  145.8802  155.5605 C.ar    1  UNL1        0.0194
     22 C         140.2072  146.3755  156.8826 C.ar    1  UNL1        0.0859
     23 C         139.3092  147.5756  156.9397 C.ar    1  UNL1        0.0560
     24 O         138.0200  149.4806  155.7317 O.3     1  UNL1       -0.4754
     25 C         138.6481  151.8615  154.9030 C.3     1  UNL1        0.0512
     26 C         138.5988  150.8384  155.9988 C.3     1  UNL1        0.2055
     27 C         141.0842  143.4226  164.1030 C.3     1  UNL1        0.1119
     28 C         140.1462  142.3295  164.5213 C.3     1  UNL1        0.0388
     29 C         139.0072  141.9360  163.6281 C.3     1  UNL1        0.0048
     30 C         138.0691  140.8428  164.0464 C.3     1  UNL1        0.0174
     31 C         138.2699  140.1433  165.3580 C.3     1  UNL1        0.0722
     32 N         139.4090  140.5369  166.2513 N.3     1  UNL1       -0.2706
     33 C         140.3470  141.6299  165.8329 C.3     1  UNL1        0.0741
     34 C         139.6098  139.8372  167.5629 C.3     1  UNL1        0.1020
     35 C         140.3075  140.5407  168.6890 C.3     1  UNL1        0.1312
     36 C         139.6758  141.4955  169.6583 C.3     1  UNL1        0.0336
     37 C         140.7373  141.9579  170.6119 C.3     1  UNL1        0.0346
     38 C         142.0250  141.2890  170.2321 C.3     1  UNL1        0.1422
     39 O         141.7594  140.4132  169.0437 O.3     1  UNL1       -0.3548
@<TRIPOS>BOND
     1    25    26    1
     2    26    24    1
     3    24    18    1
     4    18    19   ar
     5    19    20   ar
     6    20    21   ar
     7    21    22   ar
     8    22     1    1
     9     1     2   ar
    10     2     3   ar
    11     3     4   ar
    12     4     5   ar
    13     5    11    1
    14    11    12   ar
    15    12    13   ar
    16    13    14   ar
    17    14    15   ar
    18    15    16   ar
    19    16    17    1
    20     5     6   ar
    21     6    27    1
    22    28    27    1
    23    28    29    1
    24    29    30    1
    25    30    31    1
    26    31    32    1
    27    32    34    1
    28    35    34    1
    29    35    36    1
    30    36    37    1
    31    37    38    1
    32    38    39    1
    33    32    33    1
    34     6     7   ar
    35     7     8    2
    36     7     9   ar
    37     9    10   ar
    38    22    23   ar
    39    23    18   ar
    40    10     1   ar
    41     9     3   ar
    42    16    11   ar
    43    33    28    1
    44    39    35    1
@<TRIPOS>MOLECULE
*****
 39 44 0 0 0
SMALL
GASTEIGER

@<TRIPOS>ATOM
      1 N         141.3571  137.0083  156.4000 N.ar    1  UNL1       -0.2264
      2 C         140.0855  137.4992  157.0261 C.ar    1  UNL1        0.1212
      3 C         140.4441  138.5235  158.0616 C.ar    1  UNL1        0.1260
      4 N         139.6038  139.3452  158.9937 N.ar    1  UNL1       -0.2248
      5 C         140.2568  140.3090  159.9396 C.ar    1  UNL1        0.1472
      6 N         141.7499  140.4512  159.9533 N.ar    1  UNL1       -0.2792
      7 C         142.5902  139.6296  159.0212 C.ar    1  UNL1        0.2829
      8 O         144.0834  139.7718  159.0350 O.2     1  UNL1       -0.2652
      9 C         141.9373  138.6658  158.0753 C.ar    1  UNL1        0.1762
     10 N         142.5016  137.7293  157.0484 N.ar    1  UNL1       -0.1586
     11 C         139.4165  141.1307  160.8718 C.ar    1  UNL1        0.0478
     12 C         139.0641  140.5993  162.2295 C.ar    1  UNL1        0.0058
     13 C         138.2239  141.4209  163.1616 C.ar    1  UNL1        0.0208
     14 C         137.7360  142.7740  162.7360 C.ar    1  UNL1        0.0984
     15 N         138.0884  143.3055  161.3783 N.ar    1  UNL1       -0.2480
     16 C         138.9287  142.4838  160.4462 C.ar    1  UNL1        0.0623
     17 C         139.2811  143.0153  159.0885 C.3     1  UNL1        0.0522
     18 C         142.4685  133.7570  154.4142 C.ar    1  UNL1        0.1401
     19 C         141.6816  133.9158  153.1471 C.ar    1  UNL1        0.0370
     20 C         140.7865  135.1055  152.9642 C.ar    1  UNL1        0.0047
     21 C         140.6784  136.1363  154.0486 C.ar    1  UNL1        0.0194
     22 C         141.4653  135.9775  155.3157 C.ar    1  UNL1        0.0859
     23 C         142.3604  134.7878  155.4985 C.ar    1  UNL1        0.0560
     24 O         143.3636  132.5672  154.5970 O.3     1  UNL1       -0.4754
     25 C         144.9728  131.1926  156.1038 C.3     1  UNL1        0.0512
     26 C         143.9133  132.2439  155.9546 C.3     1  UNL1        0.2055
     27 C         142.4029  141.4151  160.8992 C.3     1  UNL1        0.1119
     28 C         143.1758  140.9021  162.0779 C.3     1  UNL1        0.0388
     29 C         144.5877  141.3554  162.3038 C.3     1  UNL1        0.0048
     30 C         145.3607  140.8423  163.4825 C.3     1  UNL1        0.0174
     31 C         144.7218  139.8759  164.4353 C.3     1  UNL1        0.0722
     32 N         143.3098  139.4225  164.2093 N.3     1  UNL1       -0.2706
     33 C         142.5369  139.9356  163.0307 C.3     1  UNL1        0.0741
     34 C         142.6709  138.4560  165.1621 C.3     1  UNL1        0.1020
     35 C         141.1769  138.3990  165.2831 C.3     1  UNL1        0.1312
     36 C         140.2779  137.3872  164.6364 C.3     1  UNL1        0.0336
     37 C         138.8650  137.7066  165.0257 C.3     1  UNL1        0.0346
     38 C         138.8906  138.9158  165.9129 C.3     1  UNL1        0.1422
     39 O         140.3194  139.3437  166.0720 O.3     1  UNL1       -0.3548
@<TRIPOS>BOND
     1    25    26    1
     2    26    24    1
     3    24    18    1
     4    18    19   ar
     5    19    20   ar
     6    20    21   ar
     7    21    22   ar
     8    22     1    1
     9     1     2   ar
    10     2     3   ar
    11     3     4   ar
    12     4     5   ar
    13     5    11    1
    14    11    12   ar
    15    12    13   ar
    16    13    14   ar
    17    14    15   ar
    18    15    16   ar
    19    16    17    1
    20     5     6   ar
    21     6    27    1
    22    28    27    1
    23    28    29    1
    24    29    30    1
    25    30    31    1
    26    31    32    1
    27    32    34    1
    28    35    34    1
    29    35    36    1
    30    36    37    1
    31    37    38    1
    32    38    39    1
    33    32    33    1
    34     6     7   ar
    35     7     8    2
    36     7     9   ar
    37     9    10   ar
    38    22    23   ar
    39    23    18   ar
    40    10     1   ar
    41     9     3   ar
    42    16    11   ar
    43    33    28    1
    44    39    35    1
@<TRIPOS>MOLECULE
*****
 39 44 0 0 0
SMALL
GASTEIGER

@<TRIPOS>ATOM
      1 N         141.9772  137.5486  157.6969 N.ar    1  UNL1       -0.2264
      2 C         140.6792  138.2458  157.9780 C.ar    1  UNL1        0.1212
      3 C         140.8885  139.1607  159.1481 C.ar    1  UNL1        0.1260
      4 N         139.9637  140.0967  159.8682 N.ar    1  UNL1       -0.2248
      5 C         140.4663  140.9010  161.0304 C.ar    1  UNL1        0.1472
      6 N         141.8935  140.7692  161.4724 N.ar    1  UNL1       -0.2792
      7 C         142.8183  139.8332  160.7523 C.ar    1  UNL1        0.2829
      8 O         144.2456  139.7014  161.1944 O.2     1  UNL1       -0.2652
      9 C         142.3158  139.0289  159.5902 C.ar    1  UNL1        0.1762
     10 N         142.9887  138.0326  158.6932 N.ar    1  UNL1       -0.1586
     11 C         139.5415  141.8371  161.7506 C.ar    1  UNL1        0.0478
     12 C         138.7483  141.3504  162.9270 C.ar    1  UNL1        0.0058
     13 C         137.8236  142.2865  163.6471 C.ar    1  UNL1        0.0208
     14 C         137.6919  143.7093  163.1908 C.ar    1  UNL1        0.0984
     15 N         138.4851  144.1960  162.0143 N.ar    1  UNL1       -0.2480
     16 C         139.4098  143.2600  161.2942 C.ar    1  UNL1        0.0623
     17 C         140.2030  143.7467  160.1178 C.3     1  UNL1        0.0522
     18 C         143.2547  134.2974  155.8134 C.ar    1  UNL1        0.1401
     19 C         142.7086  134.5343  154.4366 C.ar    1  UNL1        0.0370
     20 C         141.9186  135.7760  154.1465 C.ar    1  UNL1        0.0047
     21 C         141.6748  136.7807  155.2334 C.ar    1  UNL1        0.0194
     22 C         142.2210  136.5438  156.6101 C.ar    1  UNL1        0.0859
     23 C         143.0110  135.3021  156.9002 C.ar    1  UNL1        0.0560
     24 O         144.0447  133.0557  156.1034 O.3     1  UNL1       -0.4754
     25 C         145.5476  132.1693  158.0284 C.3     1  UNL1        0.0512
     26 C         144.1979  132.5773  157.5168 C.3     1  UNL1        0.2055
     27 C         142.3961  141.5735  162.6346 C.3     1  UNL1        0.1119
     28 C         142.3559  140.9972  164.0188 C.3     1  UNL1        0.0388
     29 C         141.9924  139.5561  164.2210 C.3     1  UNL1        0.0048
     30 C         141.9522  138.9797  165.6053 C.3     1  UNL1        0.0174
     31 C         142.2756  139.8446  166.7874 C.3     1  UNL1        0.0722
     32 N         142.6391  141.2858  166.5853 N.3     1  UNL1       -0.2706
     33 C         142.6793  141.8621  165.2011 C.3     1  UNL1        0.0741
     34 C         142.9624  142.1507  167.7675 C.3     1  UNL1        0.1020
     35 C         142.0009  142.2423  168.9150 C.3     1  UNL1        0.1312
     36 C         140.6938  142.9784  168.9134 C.3     1  UNL1        0.0336
     37 C         140.0625  142.8051  170.2630 C.3     1  UNL1        0.0346
     38 C         140.9793  141.9619  171.0987 C.3     1  UNL1        0.1422
     39 O         142.1773  141.6141  170.2657 O.3     1  UNL1       -0.3548
@<TRIPOS>BOND
     1    25    26    1
     2    26    24    1
     3    24    18    1
     4    18    19   ar
     5    19    20   ar
     6    20    21   ar
     7    21    22   ar
     8    22     1    1
     9     1     2   ar
    10     2     3   ar
    11     3     4   ar
    12     4     5   ar
    13     5    11    1
    14    11    12   ar
    15    12    13   ar
    16    13    14   ar
    17    14    15   ar
    18    15    16   ar
    19    16    17    1
    20     5     6   ar
    21     6    27    1
    22    28    27    1
    23    28    29    1
    24    29    30    1
    25    30    31    1
    26    31    32    1
    27    32    34    1
    28    35    34    1
    29    35    36    1
    30    36    37    1
    31    37    38    1
    32    38    39    1
    33    32    33    1
    34     6     7   ar
    35     7     8    2
    36     7     9   ar
    37     9    10   ar
    38    22    23   ar
    39    23    18   ar
    40    10     1   ar
    41     9     3   ar
    42    16    11   ar
    43    33    28    1
    44    39    35    1
@<TRIPOS>MOLECULE
*****
 39 44 0 0 0
SMALL
GASTEIGER

@<TRIPOS>ATOM
      1 N         141.7296  136.6021  156.2908 N.ar    1  UNL1       -0.2264
      2 C         142.9715  136.8292  157.1008 C.ar    1  UNL1        0.1212
      3 C         142.6090  137.6923  158.2728 C.ar    1  UNL1        0.1260
      4 N         143.4244  138.2389  159.4070 N.ar    1  UNL1       -0.2248
      5 C         142.7738  139.0918  160.4555 C.ar    1  UNL1        0.1472
      6 N         141.3080  139.3981  160.3699 N.ar    1  UNL1       -0.2792
      7 C         140.4926  138.8515  159.2357 C.ar    1  UNL1        0.2829
      8 O         139.0267  139.1578  159.1501 O.2     1  UNL1       -0.2652
      9 C         141.1431  137.9986  158.1872 C.ar    1  UNL1        0.1762
     10 N         140.5996  137.3248  156.9622 N.ar    1  UNL1       -0.1586
     11 C         143.5893  139.6385  161.5897 C.ar    1  UNL1        0.0478
     12 C         143.7488  138.8421  162.8508 C.ar    1  UNL1        0.0058
     13 C         144.5642  139.3887  163.9849 C.ar    1  UNL1        0.0208
     14 C         145.2201  140.7317  163.8580 C.ar    1  UNL1        0.0984
     15 N         145.0606  141.5281  162.5970 N.ar    1  UNL1       -0.2480
     16 C         144.2452  140.9815  161.4628 C.ar    1  UNL1        0.0623
     17 C         144.0857  141.7779  160.2018 C.3     1  UNL1        0.0522
     18 C         141.8830  133.5262  153.7877 C.ar    1  UNL1        0.1401
     19 C         141.4439  134.1781  152.5102 C.ar    1  UNL1        0.0370
     20 C         141.0999  135.6381  152.4928 C.ar    1  UNL1        0.0047
     21 C         141.1952  136.4460  153.7531 C.ar    1  UNL1        0.0194
     22 C         141.6344  135.7941  155.0306 C.ar    1  UNL1        0.0859
     23 C         141.9783  134.3342  155.0480 C.ar    1  UNL1        0.0560
     24 O         142.2270  132.0663  153.8050 O.3     1  UNL1       -0.4754
     25 C         140.0588  130.8492  154.5586 C.3     1  UNL1        0.0512
     26 C         141.5181  131.1399  154.7481 C.3     1  UNL1        0.2055
     27 C         140.6574  140.2510  161.4184 C.3     1  UNL1        0.1119
     28 C         140.0796  139.6168  162.6487 C.3     1  UNL1        0.0388
     29 C         139.4964  138.2367  162.5778 C.3     1  UNL1        0.0048
     30 C         138.9185  137.6024  163.8082 C.3     1  UNL1        0.0174
     31 C         138.9239  138.3483  165.1095 C.3     1  UNL1        0.0722
     32 N         139.5072  139.7286  165.1805 N.3     1  UNL1       -0.2706
     33 C         140.0850  140.3628  163.9502 C.3     1  UNL1        0.0741
     34 C         139.5125  140.4745  166.4820 C.3     1  UNL1        0.1020
     35 C         140.5074  140.1182  167.5465 C.3     1  UNL1        0.1312
     36 C         141.9654  139.8380  167.3324 C.3     1  UNL1        0.0336
     37 C         142.5781  139.5261  168.6655 C.3     1  UNL1        0.0346
     38 C         141.4989  139.6136  169.7036 C.3     1  UNL1        0.1422
     39 O         140.2191  139.9795  169.0120 O.3     1  UNL1       -0.3548
@<TRIPOS>BOND
     1    25    26    1
     2    26    24    1
     3    24    18    1
     4    18    19   ar
     5    19    20   ar
     6    20    21   ar
     7    21    22   ar
     8    22     1    1
     9     1     2   ar
    10     2     3   ar
    11     3     4   ar
    12     4     5   ar
    13     5    11    1
    14    11    12   ar
    15    12    13   ar
    16    13    14   ar
    17    14    15   ar
    18    15    16   ar
    19    16    17    1
    20     5     6   ar
    21     6    27    1
    22    28    27    1
    23    28    29    1
    24    29    30    1
    25    30    31    1
    26    31    32    1
    27    32    34    1
    28    35    34    1
    29    35    36    1
    30    36    37    1
    31    37    38    1
    32    38    39    1
    33    32    33    1
    34     6     7   ar
    35     7     8    2
    36     7     9   ar
    37     9    10   ar
    38    22    23   ar
    39    23    18   ar
    40    10     1   ar
    41     9     3   ar
    42    16    11   ar
    43    33    28    1
    44    39    35    1
@<TRIPOS>MOLECULE
*****
 39 44 0 0 0
SMALL
GASTEIGER

@<TRIPOS>ATOM
      1 N         143.9601  142.2015  157.9658 N.ar    1  UNL1       -0.2264
      2 C         143.2755  143.3365  158.6680 C.ar    1  UNL1        0.1212
      3 C         142.4734  142.7651  159.7995 C.ar    1  UNL1        0.1260
      4 N         141.5954  143.4076  160.8321 N.ar    1  UNL1       -0.2248
      5 C         140.9063  142.5620  161.8618 C.ar    1  UNL1        0.1472
      6 N         141.0953  141.0740  161.8588 N.ar    1  UNL1       -0.2792
      7 C         141.9733  140.4315  160.8262 C.ar    1  UNL1        0.2829
      8 O         142.1622  138.9435  160.8233 O.2     1  UNL1       -0.2652
      9 C         142.6623  141.2771  159.7966 C.ar    1  UNL1        0.1762
     10 N         143.5812  140.9287  158.6633 N.ar    1  UNL1       -0.1586
     11 C         140.0283  143.2045  162.8944 C.ar    1  UNL1        0.0478
     12 C         138.5689  143.4101  162.6151 C.ar    1  UNL1        0.0058
     13 C         137.6910  144.0526  163.6477 C.ar    1  UNL1        0.0208
     14 C         138.2723  144.4895  164.9597 C.ar    1  UNL1        0.0984
     15 N         139.7316  144.2839  165.2390 N.ar    1  UNL1       -0.2480
     16 C         140.6096  143.6414  164.2064 C.ar    1  UNL1        0.0623
     17 C         142.0690  143.4357  164.4857 C.3     1  UNL1        0.0522
     18 C         147.2301  142.1214  155.7183 C.ar    1  UNL1        0.1401
     19 C         146.6743  142.5532  154.3937 C.ar    1  UNL1        0.0370
     20 C         145.2138  142.8678  154.2597 C.ar    1  UNL1        0.0047
     21 C         144.3091  142.7505  155.4505 C.ar    1  UNL1        0.0194
     22 C         144.8649  142.3188  156.7751 C.ar    1  UNL1        0.0859
     23 C         146.3254  142.0042  156.9091 C.ar    1  UNL1        0.0560
     24 O         148.6906  141.8069  155.8523 O.3     1  UNL1       -0.4754
     25 C         150.9882  142.0668  154.6676 C.3     1  UNL1        0.0512
     26 C         149.5431  141.6667  154.6261 C.3     1  UNL1        0.2055
     27 C         140.4062  140.2284  162.8885 C.3     1  UNL1        0.1119
     28 C         141.0377  140.0205  164.2330 C.3     1  UNL1        0.0388
     29 C         142.4979  139.6920  164.3331 C.3     1  UNL1        0.0048
     30 C         143.1295  139.4841  165.6777 C.3     1  UNL1        0.0174
     31 C         142.3009  139.6047  166.9222 C.3     1  UNL1        0.0722
     32 N         140.8407  139.9333  166.8221 N.3     1  UNL1       -0.2706
     33 C         140.2092  140.1411  165.4776 C.3     1  UNL1        0.0741
     34 C         140.0121  140.0539  168.0668 C.3     1  UNL1        0.1020
     35 C         140.0471  141.3193  168.8713 C.3     1  UNL1        0.1312
     36 C         140.6919  142.6092  168.4582 C.3     1  UNL1        0.0336
     37 C         140.4868  143.6042  169.5617 C.3     1  UNL1        0.0346
     38 C         139.7153  142.9294  170.6569 C.3     1  UNL1        0.1422
     39 O         139.4436  141.5173  170.2302 O.3     1  UNL1       -0.3548
@<TRIPOS>BOND
     1    25    26    1
     2    26    24    1
     3    24    18    1
     4    18    19   ar
     5    19    20   ar
     6    20    21   ar
     7    21    22   ar
     8    22     1    1
     9     1     2   ar
    10     2     3   ar
    11     3     4   ar
    12     4     5   ar
    13     5    11    1
    14    11    12   ar
    15    12    13   ar
    16    13    14   ar
    17    14    15   ar
    18    15    16   ar
    19    16    17    1
    20     5     6   ar
    21     6    27    1
    22    28    27    1
    23    28    29    1
    24    29    30    1
    25    30    31    1
    26    31    32    1
    27    32    34    1
    28    35    34    1
    29    35    36    1
    30    36    37    1
    31    37    38    1
    32    38    39    1
    33    32    33    1
    34     6     7   ar
    35     7     8    2
    36     7     9   ar
    37     9    10   ar
    38    22    23   ar
    39    23    18   ar
    40    10     1   ar
    41     9     3   ar
    42    16    11   ar
    43    33    28    1
    44    39    35    1
