@<TRIPOS>MOLECULE
*****
 33 37 0 0 0
SMALL
GASTEIGER

@<TRIPOS>ATOM
      1 N         140.4403  138.9817  162.4197 N.3     1  UNL1       -0.2711
      2 C         140.4096  137.8080  163.3533 C.3     1  UNL1        0.0722
      3 C         140.0908  138.0123  164.8047 C.3     1  UNL1        0.0182
      4 C         139.8025  139.3902  165.3225 C.3     1  UNL1        0.0155
      5 C         139.8332  140.5639  164.3889 C.3     1  UNL1        0.0182
      6 C         140.1521  140.3596  162.9375 C.3     1  UNL1        0.0722
      7 C         139.4836  139.5945  166.7739 C.3     1  UNL1        0.1003
      8 C         138.2763  139.0707  167.4936 C.2     1  UNL1        0.2298
      9 O         137.1758  138.2506  166.8881 O.2     1  UNL1       -0.2744
     10 N         138.3625  139.5109  168.9249 N.am    1  UNL1       -0.2839
     11 C         139.6232  140.3069  169.0899 C.ar    1  UNL1        0.0468
     12 C         140.2298  140.9913  170.2788 C.ar    1  UNL1        0.0152
     13 C         141.5292  141.7273  170.1385 C.ar    1  UNL1        0.0126
     14 C         142.2221  141.7789  168.8090 C.ar    1  UNL1        0.0575
     15 CL        143.5215  142.5150  168.6688 Cl      1  UNL1       -0.0823
     16 C         141.6155  141.0945  167.6201 C.ar    1  UNL1        0.0088
     17 C         140.3161  140.3585  167.7605 C.ar    1  UNL1        0.0005
     18 H         137.7068  139.3124  169.6320 H       1  UNL1        0.1549
     19 C         140.7592  138.7774  160.9683 C.3     1  UNL1        0.0970
     20 C         142.1880  138.7131  160.5162 C.3     1  UNL1        0.1264
     21 C         144.7894  139.7432  164.0406 C.ar    1  UNL1        0.1593
     22 C         145.6254  140.9884  164.0172 C.ar    1  UNL1        0.1357
     23 N         145.5942  141.8903  162.8190 N.ar    1  UNL1       -0.2392
     24 C         144.7270  141.5470  161.6442 C.ar    1  UNL1        0.0975
     25 C         144.6959  142.4489  160.4460 C.ar    1  UNL1        0.0255
     26 C         143.8287  142.1055  159.2712 C.ar    1  UNL1        0.0623
     27 C         142.9927  140.8603  159.2946 C.ar    1  UNL1        0.2611
     28 O         142.1256  140.5169  158.1198 O.2     1  UNL1       -0.2670
     29 N         143.0239  139.9584  160.4928 N.ar    1  UNL1       -0.2926
     30 C         143.8911  140.3018  161.6676 C.ar    1  UNL1        0.0832
     31 C         143.9223  139.3999  162.8658 C.ar    1  UNL1        0.0573
     32 C         143.5392  138.4272  165.8993 C.3     1  UNL1        0.2525
     33 O         144.8206  138.8413  165.2387 O.3     1  UNL1       -0.4698
@<TRIPOS>BOND
     1    32    33    1
     2    33    21    1
     3    21    22   ar
     4    22    23   ar
     5    23    24   ar
     6    24    25   ar
     7    25    26   ar
     8    26    27   ar
     9    27    28    2
    10    27    29   ar
    11    29    20    1
    12    20    19    1
    13    19     1    1
    14     1     2    1
    15     2     3    1
    16     3     4    1
    17     4     7    1
    18     7     8    1
    19     8     9    2
    20     8    10   am
    21    10    11    1
    22    11    12   ar
    23    12    13   ar
    24    13    14   ar
    25    14    15    1
    26    14    16   ar
    27    16    17   ar
    28     4     5    1
    29     5     6    1
    30    29    30   ar
    31    30    31   ar
    32    31    21   ar
    33    30    24   ar
    34     6     1    1
    35    17     7    1
    36    17    11   ar
    37    10    18    1
@<TRIPOS>MOLECULE
*****
 33 37 0 0 0
SMALL
GASTEIGER

@<TRIPOS>ATOM
      1 N         140.7127  139.3856  163.1102 N.3     1  UNL1       -0.2711
      2 C         139.4801  140.1188  163.5499 C.3     1  UNL1        0.0722
      3 C         139.1928  140.2934  165.0117 C.3     1  UNL1        0.0182
      4 C         140.1380  139.7349  166.0338 C.3     1  UNL1        0.0155
      5 C         141.3706  139.0017  165.5940 C.3     1  UNL1        0.0182
      6 C         141.6579  138.8271  164.1322 C.3     1  UNL1        0.0722
      7 C         139.8507  139.9094  167.4957 C.3     1  UNL1        0.1003
      8 C         138.6292  139.4240  168.2183 C.2     1  UNL1        0.2298
      9 O         137.4804  138.6787  167.6058 O.2     1  UNL1       -0.2744
     10 N         138.7580  139.8146  169.6607 N.am    1  UNL1       -0.2839
     11 C         140.0592  140.5415  169.8296 C.ar    1  UNL1        0.0468
     12 C         140.7164  141.1577  171.0290 C.ar    1  UNL1        0.0152
     13 C         142.0488  141.8324  170.8903 C.ar    1  UNL1        0.0126
     14 C         142.7242  141.8910  169.5522 C.ar    1  UNL1        0.0575
     15 CL        144.0566  142.5657  169.4136 Cl      1  UNL1       -0.0823
     16 C         142.0670  141.2749  168.3528 C.ar    1  UNL1        0.0088
     17 C         140.7345  140.6001  168.4916 C.ar    1  UNL1        0.0005
     18 H         138.1035  139.6269  170.3718 H       1  UNL1        0.1549
     19 C         141.0000  139.2111  161.6483 C.3     1  UNL1        0.0970
     20 C         141.6036  140.3374  160.8628 C.3     1  UNL1        0.1264
     21 C         140.2255  144.3698  162.3088 C.ar    1  UNL1        0.1593
     22 C         141.1986  145.3042  162.9644 C.ar    1  UNL1        0.1357
     23 N         142.6311  144.8945  163.1380 N.ar    1  UNL1       -0.2392
     24 C         143.0905  143.5504  162.6561 C.ar    1  UNL1        0.0975
     25 C         144.5230  143.1408  162.8297 C.ar    1  UNL1        0.0255
     26 C         144.9824  141.7967  162.3477 C.ar    1  UNL1        0.0623
     27 C         144.0092  140.8622  161.6921 C.ar    1  UNL1        0.2611
     28 O         144.4686  139.5181  161.2101 O.2     1  UNL1       -0.2670
     29 N         142.5768  141.2718  161.5184 N.ar    1  UNL1       -0.2926
     30 C         142.1174  142.6160  162.0005 C.ar    1  UNL1        0.0832
     31 C         140.6849  143.0257  161.8268 C.ar    1  UNL1        0.0573
     32 C         137.7446  144.2564  163.0717 C.3     1  UNL1        0.2525
     33 O         138.7930  144.7794  162.1352 O.3     1  UNL1       -0.4698
@<TRIPOS>BOND
     1    32    33    1
     2    33    21    1
     3    21    22   ar
     4    22    23   ar
     5    23    24   ar
     6    24    25   ar
     7    25    26   ar
     8    26    27   ar
     9    27    28    2
    10    27    29   ar
    11    29    20    1
    12    20    19    1
    13    19     1    1
    14     1     2    1
    15     2     3    1
    16     3     4    1
    17     4     7    1
    18     7     8    1
    19     8     9    2
    20     8    10   am
    21    10    11    1
    22    11    12   ar
    23    12    13   ar
    24    13    14   ar
    25    14    15    1
    26    14    16   ar
    27    16    17   ar
    28     4     5    1
    29     5     6    1
    30    29    30   ar
    31    30    31   ar
    32    31    21   ar
    33    30    24   ar
    34     6     1    1
    35    17     7    1
    36    17    11   ar
    37    10    18    1
@<TRIPOS>MOLECULE
*****
 33 37 0 0 0
SMALL
GASTEIGER

@<TRIPOS>ATOM
      1 N         140.3689  140.3149  162.6049 N.3     1  UNL1       -0.2711
      2 C         139.1402  140.9440  163.1919 C.3     1  UNL1        0.0722
      3 C         138.8818  140.8515  164.6665 C.3     1  UNL1        0.0182
      4 C         139.8519  140.1299  165.5542 C.3     1  UNL1        0.0155
      5 C         141.0806  139.5007  164.9672 C.3     1  UNL1        0.0182
      6 C         141.3391  139.5932  163.4925 C.3     1  UNL1        0.0722
      7 C         139.5935  140.0374  167.0289 C.3     1  UNL1        0.1003
      8 C         138.4099  139.3825  167.6772 C.2     1  UNL1        0.2298
      9 O         137.2769  138.7052  166.9646 O.2     1  UNL1       -0.2744
     10 N         138.5581  139.5238  169.1631 N.am    1  UNL1       -0.2839
     11 C         139.8334  140.2661  169.4332 C.ar    1  UNL1        0.0468
     12 C         140.4946  140.6940  170.7098 C.ar    1  UNL1        0.0152
     13 C         141.7957  141.4391  170.6673 C.ar    1  UNL1        0.0126
     14 C         142.4356  141.7565  169.3483 C.ar    1  UNL1        0.0575
     15 CL        143.7366  142.5017  169.3059 Cl      1  UNL1       -0.0823
     16 C         141.7744  141.3286  168.0717 C.ar    1  UNL1        0.0088
     17 C         140.4733  140.5834  168.1142 C.ar    1  UNL1        0.0005
     18 H         137.9289  139.1884  169.8420 H       1  UNL1        0.1549
     19 C         140.6273  140.4074  161.1302 C.3     1  UNL1        0.0970
     20 C         141.2716  141.6348  160.5572 C.3     1  UNL1        0.1264
     21 C         144.2396  143.0615  163.6240 C.ar    1  UNL1        0.1593
     22 C         144.0475  144.3907  164.2920 C.ar    1  UNL1        0.1357
     23 N         142.8661  145.2444  163.9378 N.ar    1  UNL1       -0.2392
     24 C         141.8767  144.7688  162.9156 C.ar    1  UNL1        0.0975
     25 C         140.6952  145.6225  162.5614 C.ar    1  UNL1        0.0255
     26 C         139.7059  145.1469  161.5392 C.ar    1  UNL1        0.0623
     27 C         139.8980  143.8177  160.8711 C.ar    1  UNL1        0.2611
     28 O         138.9086  143.3421  159.8489 O.2     1  UNL1       -0.2670
     29 N         141.0795  142.9640  161.2253 N.ar    1  UNL1       -0.2926
     30 C         142.0688  143.4396  162.2476 C.ar    1  UNL1        0.0832
     31 C         143.2503  142.5860  162.6018 C.ar    1  UNL1        0.0573
     32 C         145.3127  140.7133  163.9139 C.3     1  UNL1        0.2525
     33 O         145.4211  142.2079  163.9782 O.3     1  UNL1       -0.4698
@<TRIPOS>BOND
     1    32    33    1
     2    33    21    1
     3    21    22   ar
     4    22    23   ar
     5    23    24   ar
     6    24    25   ar
     7    25    26   ar
     8    26    27   ar
     9    27    28    2
    10    27    29   ar
    11    29    20    1
    12    20    19    1
    13    19     1    1
    14     1     2    1
    15     2     3    1
    16     3     4    1
    17     4     7    1
    18     7     8    1
    19     8     9    2
    20     8    10   am
    21    10    11    1
    22    11    12   ar
    23    12    13   ar
    24    13    14   ar
    25    14    15    1
    26    14    16   ar
    27    16    17   ar
    28     4     5    1
    29     5     6    1
    30    29    30   ar
    31    30    31   ar
    32    31    21   ar
    33    30    24   ar
    34     6     1    1
    35    17     7    1
    36    17    11   ar
    37    10    18    1
@<TRIPOS>MOLECULE
*****
 33 37 0 0 0
SMALL
GASTEIGER

@<TRIPOS>ATOM
      1 N         139.3335  138.7507  162.3757 N.3     1  UNL1       -0.2711
      2 C         140.1082  137.8903  163.3294 C.3     1  UNL1        0.0722
      3 C         140.0084  138.1304  164.8067 C.3     1  UNL1        0.0182
      4 C         139.1339  139.2309  165.3302 C.3     1  UNL1        0.0155
      5 C         138.3592  140.0913  164.3765 C.3     1  UNL1        0.0182
      6 C         138.4590  139.8512  162.8993 C.3     1  UNL1        0.0722
      7 C         139.0341  139.4711  166.8076 C.3     1  UNL1        0.1003
      8 C         137.9577  138.9523  167.7144 C.2     1  UNL1        0.2298
      9 O         136.7922  138.1022  167.3031 O.2     1  UNL1       -0.2744
     10 N         138.2515  139.4327  169.1047 N.am    1  UNL1       -0.2839
     11 C         139.5094  140.2485  169.0571 C.ar    1  UNL1        0.0468
     12 C         140.2769  140.9727  170.1230 C.ar    1  UNL1        0.0152
     13 C         141.5280  141.7207  169.7694 C.ar    1  UNL1        0.0126
     14 C         142.0118  141.7444  168.3496 C.ar    1  UNL1        0.0575
     15 CL        143.2629  142.4924  167.9960 Cl      1  UNL1       -0.0823
     16 C         141.2442  141.0201  167.2837 C.ar    1  UNL1        0.0088
     17 C         139.9931  140.2721  167.6374 C.ar    1  UNL1        0.0005
     18 H         137.7132  139.2455  169.9075 H       1  UNL1        0.1549
     19 C         139.4333  138.5105  160.8984 C.3     1  UNL1        0.0970
     20 C         140.3765  139.3290  160.0675 C.3     1  UNL1        0.1264
     21 C         140.7271  143.6364  161.3220 C.ar    1  UNL1        0.1593
     22 C         142.0069  144.1419  161.9189 C.ar    1  UNL1        0.1357
     23 N         143.1700  143.2116  162.0978 N.ar    1  UNL1       -0.2392
     24 C         143.0531  141.7759  161.6796 C.ar    1  UNL1        0.0975
     25 C         144.2161  140.8456  161.8585 C.ar    1  UNL1        0.0255
     26 C         144.0993  139.4098  161.4403 C.ar    1  UNL1        0.0623
     27 C         142.8194  138.9043  160.8433 C.ar    1  UNL1        0.2611
     28 O         142.7026  137.4685  160.4252 O.2     1  UNL1       -0.2670
     29 N         141.6564  139.8345  160.6645 N.ar    1  UNL1       -0.2926
     30 C         141.7733  141.2704  161.0827 C.ar    1  UNL1        0.0832
     31 C         140.6103  142.2007  160.9038 C.ar    1  UNL1        0.0573
     32 C         139.6798  146.0016  161.5645 C.3     1  UNL1        0.2525
     33 O         139.5641  144.5667  161.1431 O.3     1  UNL1       -0.4698
@<TRIPOS>BOND
     1    32    33    1
     2    33    21    1
     3    21    22   ar
     4    22    23   ar
     5    23    24   ar
     6    24    25   ar
     7    25    26   ar
     8    26    27   ar
     9    27    28    2
    10    27    29   ar
    11    29    20    1
    12    20    19    1
    13    19     1    1
    14     1     2    1
    15     2     3    1
    16     3     4    1
    17     4     7    1
    18     7     8    1
    19     8     9    2
    20     8    10   am
    21    10    11    1
    22    11    12   ar
    23    12    13   ar
    24    13    14   ar
    25    14    15    1
    26    14    16   ar
    27    16    17   ar
    28     4     5    1
    29     5     6    1
    30    29    30   ar
    31    30    31   ar
    32    31    21   ar
    33    30    24   ar
    34     6     1    1
    35    17     7    1
    36    17    11   ar
    37    10    18    1
@<TRIPOS>MOLECULE
*****
 33 37 0 0 0
SMALL
GASTEIGER

@<TRIPOS>ATOM
      1 N         139.1497  138.3555  162.1766 N.3     1  UNL1       -0.2711
      2 C         138.2300  139.4299  162.6764 C.3     1  UNL1        0.0722
      3 C         138.1958  139.7680  164.1374 C.3     1  UNL1        0.0182
      4 C         139.0813  139.0318  165.0985 C.3     1  UNL1        0.0155
      5 C         140.0011  137.9574  164.5986 C.3     1  UNL1        0.0182
      6 C         140.0353  137.6193  163.1377 C.3     1  UNL1        0.0722
      7 C         139.0472  139.3699  166.5596 C.3     1  UNL1        0.1003
      8 C         138.0214  138.9020  167.5490 C.2     1  UNL1        0.2298
      9 O         136.8498  138.0140  167.2511 O.2     1  UNL1       -0.2744
     10 N         138.3730  139.4781  168.8886 N.am    1  UNL1       -0.2839
     11 C         139.6161  140.3021  168.7270 C.ar    1  UNL1        0.0468
     12 C         140.4224  141.1046  169.7046 C.ar    1  UNL1        0.0152
     13 C         141.6453  141.8401  169.2429 C.ar    1  UNL1        0.0126
     14 C         142.0620  141.7732  167.8034 C.ar    1  UNL1        0.0575
     15 CL        143.2849  142.5089  167.3417 Cl      1  UNL1       -0.0823
     16 C         141.2556  140.9707  166.8258 C.ar    1  UNL1        0.0088
     17 C         140.0327  140.2351  167.2876 C.ar    1  UNL1        0.0005
     18 H         137.8753  139.3398  169.7267 H       1  UNL1        0.1549
     19 C         139.1839  138.0174  160.7155 C.3     1  UNL1        0.0970
     20 C         140.0075  138.8445  159.7734 C.3     1  UNL1        0.1264
     21 C         143.3310  141.2027  161.6822 C.ar    1  UNL1        0.1593
     22 C         143.2539  142.6998  161.7350 C.ar    1  UNL1        0.1357
     23 N         142.0690  143.4108  161.1515 N.ar    1  UNL1       -0.2392
     24 C         140.9612  142.6248  160.5152 C.ar    1  UNL1        0.0975
     25 C         139.7763  143.3358  159.9317 C.ar    1  UNL1        0.0255
     26 C         138.6685  142.5497  159.2954 C.ar    1  UNL1        0.0623
     27 C         138.7455  141.0526  159.2426 C.ar    1  UNL1        0.2611
     28 O         137.6378  140.2666  158.6064 O.2     1  UNL1       -0.2670
     29 N         139.9304  140.3416  159.8261 N.ar    1  UNL1       -0.2926
     30 C         141.0383  141.1277  160.4624 C.ar    1  UNL1        0.0832
     31 C         142.2232  140.4167  161.0460 C.ar    1  UNL1        0.0573
     32 C         145.2858  141.1163  163.3914 C.3     1  UNL1        0.2525
     33 O         144.5158  140.4917  162.2658 O.3     1  UNL1       -0.4698
@<TRIPOS>BOND
     1    32    33    1
     2    33    21    1
     3    21    22   ar
     4    22    23   ar
     5    23    24   ar
     6    24    25   ar
     7    25    26   ar
     8    26    27   ar
     9    27    28    2
    10    27    29   ar
    11    29    20    1
    12    20    19    1
    13    19     1    1
    14     1     2    1
    15     2     3    1
    16     3     4    1
    17     4     7    1
    18     7     8    1
    19     8     9    2
    20     8    10   am
    21    10    11    1
    22    11    12   ar
    23    12    13   ar
    24    13    14   ar
    25    14    15    1
    26    14    16   ar
    27    16    17   ar
    28     4     5    1
    29     5     6    1
    30    29    30   ar
    31    30    31   ar
    32    31    21   ar
    33    30    24   ar
    34     6     1    1
    35    17     7    1
    36    17    11   ar
    37    10    18    1
@<TRIPOS>MOLECULE
*****
 33 37 0 0 0
SMALL
GASTEIGER

@<TRIPOS>ATOM
      1 N         138.3067  139.4178  162.0093 N.3     1  UNL1       -0.2711
      2 C         138.0467  140.7159  162.7145 C.3     1  UNL1        0.0722
      3 C         138.2747  140.8250  164.1930 C.3     1  UNL1        0.0182
      4 C         138.7627  139.6361  164.9664 C.3     1  UNL1        0.0155
      5 C         139.0227  138.3379  164.2612 C.3     1  UNL1        0.0182
      6 C         138.7947  138.2288  162.7827 C.3     1  UNL1        0.0722
      7 C         138.9907  139.7452  166.4450 C.3     1  UNL1        0.1003
      8 C         138.1359  139.1355  167.5162 C.2     1  UNL1        0.2298
      9 O         136.9029  138.3097  167.2970 O.2     1  UNL1       -0.2744
     10 N         138.7304  139.4966  168.8452 N.am    1  UNL1       -0.2839
     11 C         139.9527  140.3294  168.5952 C.ar    1  UNL1        0.0468
     12 C         140.9400  140.9678  169.5267 C.ar    1  UNL1        0.0152
     13 C         142.0881  141.7597  168.9749 C.ar    1  UNL1        0.0126
     14 C         142.2490  141.9133  167.4914 C.ar    1  UNL1        0.0575
     15 CL        143.3971  142.7053  166.9397 Cl      1  UNL1       -0.0823
     16 C         141.2617  141.2750  166.5599 C.ar    1  UNL1        0.0088
     17 C         140.1135  140.4830  167.1118 C.ar    1  UNL1        0.0005
     18 H         138.3799  139.2332  169.7267 H       1  UNL1        0.1549
     19 C         138.0786  139.3086  160.5307 C.3     1  UNL1        0.0970
     20 C         138.9956  140.0146  159.5764 C.3     1  UNL1        0.1264
     21 C         142.8598  140.2073  161.8744 C.ar    1  UNL1        0.1593
     22 C         144.0794  139.5087  161.3507 C.ar    1  UNL1        0.1357
     23 N         144.0111  138.7458  160.0610 N.ar    1  UNL1       -0.2392
     24 C         142.7230  138.6816  159.2950 C.ar    1  UNL1        0.0975
     25 C         142.6547  137.9187  158.0053 C.ar    1  UNL1        0.0255
     26 C         141.3666  137.8544  157.2393 C.ar    1  UNL1        0.0623
     27 C         140.1469  138.5531  157.7630 C.ar    1  UNL1        0.2611
     28 O         138.8589  138.4888  156.9970 O.2     1  UNL1       -0.2670
     29 N         140.2153  139.3160  159.0527 N.ar    1  UNL1       -0.2926
     30 C         141.5034  139.3802  159.8187 C.ar    1  UNL1        0.0832
     31 C         141.5717  140.1431  161.1084 C.ar    1  UNL1        0.0573
     32 C         144.1383  140.8518  164.0423 C.3     1  UNL1        0.2525
     33 O         142.9281  140.9702  163.1641 O.3     1  UNL1       -0.4698
@<TRIPOS>BOND
     1    32    33    1
     2    33    21    1
     3    21    22   ar
     4    22    23   ar
     5    23    24   ar
     6    24    25   ar
     7    25    26   ar
     8    26    27   ar
     9    27    28    2
    10    27    29   ar
    11    29    20    1
    12    20    19    1
    13    19     1    1
    14     1     2    1
    15     2     3    1
    16     3     4    1
    17     4     7    1
    18     7     8    1
    19     8     9    2
    20     8    10   am
    21    10    11    1
    22    11    12   ar
    23    12    13   ar
    24    13    14   ar
    25    14    15    1
    26    14    16   ar
    27    16    17   ar
    28     4     5    1
    29     5     6    1
    30    29    30   ar
    31    30    31   ar
    32    31    21   ar
    33    30    24   ar
    34     6     1    1
    35    17     7    1
    36    17    11   ar
    37    10    18    1
@<TRIPOS>MOLECULE
*****
 33 37 0 0 0
SMALL
GASTEIGER

@<TRIPOS>ATOM
      1 N         138.0532  139.7240  162.3483 N.3     1  UNL1       -0.2711
      2 C         139.0683  138.7524  162.8731 C.3     1  UNL1        0.0722
      3 C         139.5513  138.8638  164.2888 C.3     1  UNL1        0.0182
      4 C         139.0192  139.9469  165.1797 C.3     1  UNL1        0.0155
      5 C         138.0040  140.9186  164.6548 C.3     1  UNL1        0.0182
      6 C         137.5211  140.8071  163.2391 C.3     1  UNL1        0.0722
      7 C         139.5021  140.0585  166.5955 C.3     1  UNL1        0.1003
      8 C         138.8452  139.4547  167.8013 C.2     1  UNL1        0.2298
      9 O         137.5899  138.6335  167.8030 O.2     1  UNL1       -0.2744
     10 N         139.6638  139.8164  169.0050 N.am    1  UNL1       -0.2839
     11 C         140.8268  140.6437  168.5431 C.ar    1  UNL1        0.0468
     12 C         141.9638  141.2801  169.2862 C.ar    1  UNL1        0.0152
     13 C         143.0008  142.0660  168.5401 C.ar    1  UNL1        0.0126
     14 C         142.9009  142.2156  167.0509 C.ar    1  UNL1        0.0575
     15 CL        143.9380  143.0016  166.3049 Cl      1  UNL1       -0.0823
     16 C         141.7639  141.5792  166.3078 C.ar    1  UNL1        0.0088
     17 C         140.7268  140.7932  167.0540 C.ar    1  UNL1        0.0005
     18 H         139.4716  139.5565  169.9349 H       1  UNL1        0.1549
     19 C         137.5702  139.6125  160.9325 C.3     1  UNL1        0.0970
     20 C         138.2757  140.3578  159.8385 C.3     1  UNL1        0.1264
     21 C         142.4958  138.8596  159.3960 C.ar    1  UNL1        0.1593
     22 C         143.6496  139.7598  159.7250 C.ar    1  UNL1        0.1357
     23 N         143.3967  141.1594  160.2015 N.ar    1  UNL1       -0.2392
     24 C         141.9901  141.6588  160.3490 C.ar    1  UNL1        0.0975
     25 C         141.7372  143.0585  160.8255 C.ar    1  UNL1        0.0255
     26 C         140.3305  143.5579  160.9730 C.ar    1  UNL1        0.0623
     27 C         139.1766  142.6577  160.6440 C.ar    1  UNL1        0.2611
     28 O         137.7700  143.1571  160.7915 O.2     1  UNL1       -0.2670
     29 N         139.4295  141.2580  160.1675 N.ar    1  UNL1       -0.2926
     30 C         140.8363  140.7586  160.0200 C.ar    1  UNL1        0.0832
     31 C         141.0891  139.3590  159.5435 C.ar    1  UNL1        0.0573
     32 C         142.6935  137.1451  157.4539 C.3     1  UNL1        0.2525
     33 O         142.7486  137.4599  158.9195 O.3     1  UNL1       -0.4698
@<TRIPOS>BOND
     1    32    33    1
     2    33    21    1
     3    21    22   ar
     4    22    23   ar
     5    23    24   ar
     6    24    25   ar
     7    25    26   ar
     8    26    27   ar
     9    27    28    2
    10    27    29   ar
    11    29    20    1
    12    20    19    1
    13    19     1    1
    14     1     2    1
    15     2     3    1
    16     3     4    1
    17     4     7    1
    18     7     8    1
    19     8     9    2
    20     8    10   am
    21    10    11    1
    22    11    12   ar
    23    12    13   ar
    24    13    14   ar
    25    14    15    1
    26    14    16   ar
    27    16    17   ar
    28     4     5    1
    29     5     6    1
    30    29    30   ar
    31    30    31   ar
    32    31    21   ar
    33    30    24   ar
    34     6     1    1
    35    17     7    1
    36    17    11   ar
    37    10    18    1
@<TRIPOS>MOLECULE
*****
 33 37 0 0 0
SMALL
GASTEIGER

@<TRIPOS>ATOM
      1 N         137.8020  139.8361  161.9076 N.3     1  UNL1       -0.2711
      2 C         138.4505  138.6286  162.5170 C.3     1  UNL1        0.0722
      3 C         138.8877  138.6558  163.9516 C.3     1  UNL1        0.0182
      4 C         138.6764  139.8905  164.7767 C.3     1  UNL1        0.0155
      5 C         138.0279  141.0980  164.1673 C.3     1  UNL1        0.0182
      6 C         137.5907  141.0708  162.7327 C.3     1  UNL1        0.0722
      7 C         139.1136  139.9177  166.2114 C.3     1  UNL1        0.1003
      8 C         138.4007  139.2725  167.3627 C.2     1  UNL1        0.2298
      9 O         137.1254  138.4868  167.2815 O.2     1  UNL1       -0.2744
     10 N         139.1868  139.5509  168.6095 N.am    1  UNL1       -0.2839
     11 C         140.3857  140.3682  168.2287 C.ar    1  UNL1        0.0468
     12 C         141.5127  140.9353  169.0400 C.ar    1  UNL1        0.0152
     13 C         142.5943  141.7290  168.3693 C.ar    1  UNL1        0.0126
     14 C         142.5490  141.9557  166.8871 C.ar    1  UNL1        0.0575
     15 CL        143.6307  142.7495  166.2165 Cl      1  UNL1       -0.0823
     16 C         141.4220  141.3886  166.0758 C.ar    1  UNL1        0.0088
     17 C         140.3403  140.5949  166.7466 C.ar    1  UNL1        0.0005
     18 H         138.9565  139.2501  169.5182 H       1  UNL1        0.1549
     19 C         137.3648  139.8089  160.4729 C.3     1  UNL1        0.0970
     20 C         138.3844  139.8983  159.3763 C.3     1  UNL1        0.1264
     21 C         141.2289  143.1257  160.6964 C.ar    1  UNL1        0.1593
     22 C         141.3581  144.3860  159.8934 C.ar    1  UNL1        0.1357
     23 N         140.5391  144.5705  158.6503 N.ar    1  UNL1       -0.2392
     24 C         139.5910  143.4947  158.2103 C.ar    1  UNL1        0.0975
     25 C         138.7720  143.6792  156.9672 C.ar    1  UNL1        0.0255
     26 C         137.8239  142.6035  156.5271 C.ar    1  UNL1        0.0623
     27 C         137.6946  141.3431  157.3302 C.ar    1  UNL1        0.2611
     28 O         136.7465  140.2673  156.8902 O.2     1  UNL1       -0.2670
     29 N         138.5136  141.1586  158.5733 N.ar    1  UNL1       -0.2926
     30 C         139.4618  142.2345  159.0133 C.ar    1  UNL1        0.0832
     31 C         140.2807  142.0499  160.2564 C.ar    1  UNL1        0.0573
     32 C         141.7183  143.7215  163.1774 C.3     1  UNL1        0.2525
     33 O         142.0479  142.9412  161.9395 O.3     1  UNL1       -0.4698
@<TRIPOS>BOND
     1    32    33    1
     2    33    21    1
     3    21    22   ar
     4    22    23   ar
     5    23    24   ar
     6    24    25   ar
     7    25    26   ar
     8    26    27   ar
     9    27    28    2
    10    27    29   ar
    11    29    20    1
    12    20    19    1
    13    19     1    1
    14     1     2    1
    15     2     3    1
    16     3     4    1
    17     4     7    1
    18     7     8    1
    19     8     9    2
    20     8    10   am
    21    10    11    1
    22    11    12   ar
    23    12    13   ar
    24    13    14   ar
    25    14    15    1
    26    14    16   ar
    27    16    17   ar
    28     4     5    1
    29     5     6    1
    30    29    30   ar
    31    30    31   ar
    32    31    21   ar
    33    30    24   ar
    34     6     1    1
    35    17     7    1
    36    17    11   ar
    37    10    18    1
@<TRIPOS>MOLECULE
*****
 33 37 0 0 0
SMALL
GASTEIGER

@<TRIPOS>ATOM
      1 N         143.5670  142.3138  163.1790 N.3     1  UNL1       -0.2711
      2 C         143.9632  143.0557  164.4210 C.3     1  UNL1        0.0722
      3 C         143.6880  142.4606  165.7700 C.3     1  UNL1        0.0182
      4 C         143.0167  141.1235  165.8771 C.3     1  UNL1        0.0155
      5 C         142.6205  140.3816  164.6351 C.3     1  UNL1        0.0182
      6 C         142.8957  140.9767  163.2860 C.3     1  UNL1        0.0722
      7 C         142.7416  140.5283  167.2262 C.3     1  UNL1        0.1003
      8 C         143.1105  139.1441  167.6711 C.2     1  UNL1        0.2298
      9 O         143.8194  138.1120  166.8449 O.2     1  UNL1       -0.2744
     10 N         142.6461  138.9730  169.0871 N.am    1  UNL1       -0.2839
     11 C         141.9902  140.2516  169.5174 C.ar    1  UNL1        0.0468
     12 C         141.3468  140.6648  170.8079 C.ar    1  UNL1        0.0152
     13 C         140.7625  142.0390  170.9483 C.ar    1  UNL1        0.0126
     14 C         140.8214  143.0003  169.7982 C.ar    1  UNL1        0.0575
     15 CL        140.2371  144.3745  169.9387 Cl      1  UNL1       -0.0823
     16 C         141.4648  142.5871  168.5077 C.ar    1  UNL1        0.0088
     17 C         142.0492  141.2127  168.3673 C.ar    1  UNL1        0.0005
     18 H         142.7531  138.1637  169.6374 H       1  UNL1        0.1549
     19 C         143.8421  142.9090  161.8298 C.3     1  UNL1        0.0970
     20 C         142.7323  143.5549  161.0545 C.3     1  UNL1        0.1264
     21 C         138.8585  144.1424  163.2678 C.ar    1  UNL1        0.1593
     22 C         137.6476  143.3442  162.8852 C.ar    1  UNL1        0.1357
     23 N         137.7279  142.3500  161.7648 N.ar    1  UNL1       -0.2392
     24 C         139.0192  142.1542  161.0270 C.ar    1  UNL1        0.0975
     25 C         139.0995  141.1601  159.9066 C.ar    1  UNL1        0.0255
     26 C         140.3907  140.9642  159.1689 C.ar    1  UNL1        0.0623
     27 C         141.6017  141.7625  159.5515 C.ar    1  UNL1        0.2611
     28 O         142.8930  141.5666  158.8138 O.2     1  UNL1       -0.2670
     29 N         141.5214  142.7566  160.6719 N.ar    1  UNL1       -0.2926
     30 C         140.2301  142.9525  161.4097 C.ar    1  UNL1        0.0832
     31 C         140.1497  143.9466  162.5301 C.ar    1  UNL1        0.0573
     32 C         138.8799  144.6728  165.8110 C.3     1  UNL1        0.2525
     33 O         138.7782  145.1366  164.3882 O.3     1  UNL1       -0.4698
@<TRIPOS>BOND
     1    32    33    1
     2    33    21    1
     3    21    22   ar
     4    22    23   ar
     5    23    24   ar
     6    24    25   ar
     7    25    26   ar
     8    26    27   ar
     9    27    28    2
    10    27    29   ar
    11    29    20    1
    12    20    19    1
    13    19     1    1
    14     1     2    1
    15     2     3    1
    16     3     4    1
    17     4     7    1
    18     7     8    1
    19     8     9    2
    20     8    10   am
    21    10    11    1
    22    11    12   ar
    23    12    13   ar
    24    13    14   ar
    25    14    15    1
    26    14    16   ar
    27    16    17   ar
    28     4     5    1
    29     5     6    1
    30    29    30   ar
    31    30    31   ar
    32    31    21   ar
    33    30    24   ar
    34     6     1    1
    35    17     7    1
    36    17    11   ar
    37    10    18    1
