@<TRIPOS>MOLECULE
*****
 27 30 0 0 0
SMALL
GASTEIGER

@<TRIPOS>ATOM
      1 C         141.9476  142.1069  164.6967 C.3     1  UNL1        0.1686
      2 C         143.1642  142.8398  165.1790 C.3     1  UNL1        0.0595
      3 C         144.5059  142.5437  164.5771 C.3     1  UNL1        0.0614
      4 C         145.5872  141.9478  163.7253 C.3     1  UNL1        0.0175
      5 C         144.9569  140.9305  162.8209 C.3     1  UNL1        0.0175
      6 C         143.4862  140.8978  163.1138 C.3     1  UNL1        0.0614
      7 C         142.0727  141.0778  163.6125 C.3     1  UNL1        0.0595
      8 N         143.2074  141.8948  164.1992 N.3     1  UNL1       -0.2713
      9 O         140.6059  142.4030  165.2986 O.3     1  UNL1       -0.4791
     10 C         140.0635  142.1497  169.2217 C.ar    1  UNL1        0.0561
     11 C         139.5411  140.7492  169.3459 C.ar    1  UNL1        0.0047
     12 C         139.3735  139.8999  168.1209 C.ar    1  UNL1        0.0033
     13 C         139.7285  140.4511  166.7718 C.ar    1  UNL1        0.0369
     14 C         140.2509  141.8517  166.6477 C.ar    1  UNL1        0.1385
     15 C         140.4185  142.7010  167.8726 C.ar    1  UNL1        0.0414
     16 N         140.1870  144.4942  170.3346 N.am    1  UNL1       -0.3253
     17 C         140.2310  142.9990  170.4467 C.2     1  UNL1        0.2428
     18 O         140.4427  142.3532  171.7840 O.2     1  UNL1       -0.2704
     19 H         140.2969  145.0516  171.1386 H       1  UNL1        0.1453
     20 H         140.0481  144.9181  169.4569 H       1  UNL1        0.1453
     21 C         141.8657  142.1909  164.8011 C.3     1  UNL1        0.0992
     22 C         140.8270  142.9163  163.9981 C.ar    1  UNL1       -0.0031
     23 C         140.8138  144.4160  163.9690 C.ar    1  UNL1        0.0178
     24 C         139.7751  145.1414  163.1660 C.ar    1  UNL1        0.0986
     25 N         138.7497  144.3672  162.3920 N.ar    1  UNL1       -0.2423
     26 C         138.7629  142.8675  162.4210 C.ar    1  UNL1        0.0986
     27 C         139.8017  142.1421  163.2241 C.ar    1  UNL1        0.0178
@<TRIPOS>BOND
     1    16    17   am
     2    17    18    2
     3    17    10    1
     4    10    11   ar
     5    11    12   ar
     6    12    13   ar
     7    13    14   ar
     8    14     9    1
     9     1     9    1
    10     1     2    1
    11     3     2    1
    12     3     4    1
    13     4     5    1
    14     6     5    1
    15     6     7    1
    16     6     8    1
    17     8    21    1
    18    21    22    1
    19    22    23   ar
    20    23    24   ar
    21    24    25   ar
    22    25    26   ar
    23    26    27   ar
    24    14    15   ar
    25    15    10   ar
    26     7     1    1
    27    27    22   ar
    28     8     3    1
    29    16    19    1
    30    16    20    1
@<TRIPOS>MOLECULE
*****
 27 30 0 0 0
SMALL
GASTEIGER

@<TRIPOS>ATOM
      1 C         139.5102  141.1943  164.8354 C.3     1  UNL1        0.1686
      2 C         140.4429  142.3689  164.8229 C.3     1  UNL1        0.0595
      3 C         139.9663  143.6997  164.3210 C.3     1  UNL1        0.0614
      4 C         139.0953  144.7837  163.7587 C.3     1  UNL1        0.0175
      5 C         137.7431  144.1956  163.4835 C.3     1  UNL1        0.0175
      6 C         137.7784  142.7482  163.8757 C.3     1  UNL1        0.0614
      7 C         138.1008  141.3504  164.3461 C.3     1  UNL1        0.0595
      8 N         139.1525  142.4417  164.3933 N.3     1  UNL1       -0.2713
      9 O         139.9868  139.8634  165.3373 O.3     1  UNL1       -0.4791
     10 C         140.5883  139.9459  169.2591 C.ar    1  UNL1        0.0561
     11 C         142.0382  139.5682  169.3315 C.ar    1  UNL1        0.0047
     12 C         142.8042  139.2890  168.0725 C.ar    1  UNL1        0.0033
     13 C         142.1204  139.3873  166.7411 C.ar    1  UNL1        0.0369
     14 C         140.6706  139.7650  166.6687 C.ar    1  UNL1        0.1385
     15 C         139.9045  140.0443  167.9277 C.ar    1  UNL1        0.0414
     16 N         139.6820  139.1581  171.5631 N.am    1  UNL1       -0.3253
     17 C         139.8223  140.2251  170.5182 C.2     1  UNL1        0.2428
     18 O         139.1964  141.5715  170.7323 O.2     1  UNL1       -0.2704
     19 H         139.1793  139.3414  172.3894 H       1  UNL1        0.1453
     20 H         140.0928  138.2745  171.4225 H       1  UNL1        0.1453
     21 C         139.6291  141.1109  164.8952 C.3     1  UNL1        0.0992
     22 C         139.7559  139.9541  163.9488 C.ar    1  UNL1       -0.0031
     23 C         140.8907  139.9075  162.9690 C.ar    1  UNL1        0.0178
     24 C         141.0176  138.7507  162.0227 C.ar    1  UNL1        0.0986
     25 N         140.0096  137.6404  162.0561 N.ar    1  UNL1       -0.2423
     26 C         138.8747  137.6869  163.0359 C.ar    1  UNL1        0.0986
     27 C         138.7479  138.8438  163.9822 C.ar    1  UNL1        0.0178
@<TRIPOS>BOND
     1    16    17   am
     2    17    18    2
     3    17    10    1
     4    10    11   ar
     5    11    12   ar
     6    12    13   ar
     7    13    14   ar
     8    14     9    1
     9     1     9    1
    10     1     2    1
    11     3     2    1
    12     3     4    1
    13     4     5    1
    14     6     5    1
    15     6     7    1
    16     6     8    1
    17     8    21    1
    18    21    22    1
    19    22    23   ar
    20    23    24   ar
    21    24    25   ar
    22    25    26   ar
    23    26    27   ar
    24    14    15   ar
    25    15    10   ar
    26     7     1    1
    27    27    22   ar
    28     8     3    1
    29    16    19    1
    30    16    20    1
@<TRIPOS>MOLECULE
*****
 27 30 0 0 0
SMALL
GASTEIGER

@<TRIPOS>ATOM
      1 C         140.7591  142.0151  167.3148 C.3     1  UNL1        0.1686
      2 C         142.0866  141.3192  167.3721 C.3     1  UNL1        0.0595
      3 C         143.0262  141.5889  168.5099 C.3     1  UNL1        0.0614
      4 C         143.6138  142.1418  169.7744 C.3     1  UNL1        0.0175
      5 C         142.6233  143.1010  170.3650 C.3     1  UNL1        0.0175
      6 C         141.4236  143.1410  169.4655 C.3     1  UNL1        0.0614
      7 C         140.3711  142.9806  168.3952 C.3     1  UNL1        0.0595
      8 N         141.6726  142.2064  168.3189 N.3     1  UNL1       -0.2713
      9 O         139.8194  141.7454  166.1770 O.3     1  UNL1       -0.4791
     10 C         139.2852  138.2926  164.2948 C.ar    1  UNL1        0.0561
     11 C         138.4830  137.5365  165.3120 C.ar    1  UNL1        0.0047
     12 C         138.1263  138.1833  166.6175 C.ar    1  UNL1        0.0033
     13 C         138.5717  139.5862  166.9058 C.ar    1  UNL1        0.0369
     14 C         139.3739  140.3424  165.8886 C.ar    1  UNL1        0.1385
     15 C         139.7307  139.6957  164.5832 C.ar    1  UNL1        0.0414
     16 N         138.6696  137.6747  161.8475 N.am    1  UNL1       -0.3253
     17 C         139.6420  137.6458  162.9893 C.2     1  UNL1        0.2428
     18 O         140.9712  136.9700  162.8256 O.2     1  UNL1       -0.2704
     19 H         138.9038  137.2502  160.9907 H       1  UNL1        0.1453
     20 H         137.7973  138.1182  161.9550 H       1  UNL1        0.1453
     21 C         140.7330  141.9367  167.1812 C.3     1  UNL1        0.0992
     22 C         140.5872  142.9394  166.0751 C.ar    1  UNL1       -0.0031
     23 C         139.3269  143.7436  165.9533 C.ar    1  UNL1        0.0178
     24 C         139.1810  144.7463  164.8473 C.ar    1  UNL1        0.0986
     25 N         140.2954  144.9448  163.8631 N.ar    1  UNL1       -0.2423
     26 C         141.5558  144.1405  163.9849 C.ar    1  UNL1        0.0986
     27 C         141.7016  143.1379  165.0910 C.ar    1  UNL1        0.0178
@<TRIPOS>BOND
     1    16    17   am
     2    17    18    2
     3    17    10    1
     4    10    11   ar
     5    11    12   ar
     6    12    13   ar
     7    13    14   ar
     8    14     9    1
     9     1     9    1
    10     1     2    1
    11     3     2    1
    12     3     4    1
    13     4     5    1
    14     6     5    1
    15     6     7    1
    16     6     8    1
    17     8    21    1
    18    21    22    1
    19    22    23   ar
    20    23    24   ar
    21    24    25   ar
    22    25    26   ar
    23    26    27   ar
    24    14    15   ar
    25    15    10   ar
    26     7     1    1
    27    27    22   ar
    28     8     3    1
    29    16    19    1
    30    16    20    1
@<TRIPOS>MOLECULE
*****
 27 30 0 0 0
SMALL
GASTEIGER

@<TRIPOS>ATOM
      1 C         141.6394  142.2649  166.0105 C.3     1  UNL1        0.1686
      2 C         140.5916  143.1396  165.3884 C.3     1  UNL1        0.0595
      3 C         140.9916  144.2285  164.4374 C.3     1  UNL1        0.0614
      4 C         141.8171  145.1462  163.5853 C.3     1  UNL1        0.0175
      5 C         143.2579  144.7649  163.7545 C.3     1  UNL1        0.0175
      6 C         143.3228  143.6114  164.7113 C.3     1  UNL1        0.0614
      7 C         143.0872  142.4791  165.6816 C.3     1  UNL1        0.0595
      8 N         141.9221  143.2799  165.1333 N.3     1  UNL1       -0.2713
      9 O         141.2395  141.1760  166.9615 O.3     1  UNL1       -0.4791
     10 C         139.5475  138.3228  164.7829 C.ar    1  UNL1        0.0561
     11 C         138.3649  137.9767  165.6383 C.ar    1  UNL1        0.0047
     12 C         138.1405  138.6970  166.9347 C.ar    1  UNL1        0.0033
     13 C         139.0987  139.7634  167.3757 C.ar    1  UNL1        0.0369
     14 C         140.2813  140.1095  166.5204 C.ar    1  UNL1        0.1385
     15 C         140.5057  139.3892  165.2240 C.ar    1  UNL1        0.0414
     16 N         138.7069  137.6099  162.4302 N.am    1  UNL1       -0.3253
     17 C         139.7719  137.6024  163.4865 C.2     1  UNL1        0.2428
     18 O         141.0614  136.8745  163.2463 O.2     1  UNL1       -0.2704
     19 H         138.8542  137.1371  161.5793 H       1  UNL1        0.1453
     20 H         137.8606  138.0876  162.5878 H       1  UNL1        0.1453
     21 C         141.5222  142.1910  166.0843 C.3     1  UNL1        0.0992
     22 C         141.6618  142.3983  167.5634 C.ar    1  UNL1       -0.0031
     23 C         140.5607  143.0636  168.3347 C.ar    1  UNL1        0.0178
     24 C         140.7003  143.2708  169.8137 C.ar    1  UNL1        0.0986
     25 N         141.9410  142.8128  170.5214 N.ar    1  UNL1       -0.2423
     26 C         143.0422  142.1475  169.7500 C.ar    1  UNL1        0.0986
     27 C         142.9025  141.9403  168.2710 C.ar    1  UNL1        0.0178
@<TRIPOS>BOND
     1    16    17   am
     2    17    18    2
     3    17    10    1
     4    10    11   ar
     5    11    12   ar
     6    12    13   ar
     7    13    14   ar
     8    14     9    1
     9     1     9    1
    10     1     2    1
    11     3     2    1
    12     3     4    1
    13     4     5    1
    14     6     5    1
    15     6     7    1
    16     6     8    1
    17     8    21    1
    18    21    22    1
    19    22    23   ar
    20    23    24   ar
    21    24    25   ar
    22    25    26   ar
    23    26    27   ar
    24    14    15   ar
    25    15    10   ar
    26     7     1    1
    27    27    22   ar
    28     8     3    1
    29    16    19    1
    30    16    20    1
@<TRIPOS>MOLECULE
*****
 27 30 0 0 0
SMALL
GASTEIGER

@<TRIPOS>ATOM
      1 C         140.2744  141.7986  166.1202 C.3     1  UNL1        0.1686
      2 C         139.3080  140.9417  165.3575 C.3     1  UNL1        0.0595
      3 C         138.2473  141.5794  164.5102 C.3     1  UNL1        0.0614
      4 C         137.3940  142.6054  163.8252 C.3     1  UNL1        0.0175
      5 C         137.8975  143.9631  164.2167 C.3     1  UNL1        0.0175
      6 C         139.0619  143.7761  165.1436 C.3     1  UNL1        0.0614
      7 C         140.1801  143.2932  166.0356 C.3     1  UNL1        0.0595
      8 N         139.2781  142.3029  165.3250 N.3     1  UNL1       -0.2713
      9 O         141.3353  141.1608  166.9677 O.3     1  UNL1       -0.4791
     10 C         144.3234  140.2745  164.5110 C.ar    1  UNL1        0.0561
     11 C         144.7226  138.9235  165.0262 C.ar    1  UNL1        0.0047
     12 C         143.9928  138.3183  166.1885 C.ar    1  UNL1        0.0033
     13 C         142.8637  139.0641  166.8356 C.ar    1  UNL1        0.0369
     14 C         142.4644  140.4150  166.3205 C.ar    1  UNL1        0.1385
     15 C         143.1942  141.0203  165.1582 C.ar    1  UNL1        0.0414
     16 N         146.1844  141.8351  163.5885 N.am    1  UNL1       -0.3253
     17 C         145.0532  140.8796  163.3487 C.2     1  UNL1        0.2428
     18 O         144.6519  140.5294  161.9464 O.2     1  UNL1       -0.2704
     19 H         146.6635  142.2323  162.8257 H       1  UNL1        0.1453
     20 H         146.4479  142.0650  164.5089 H       1  UNL1        0.1453
     21 C         140.3389  141.6652  166.1723 C.3     1  UNL1        0.0992
     22 C         140.1851  141.6273  167.6640 C.ar    1  UNL1       -0.0031
     23 C         139.5614  140.4332  168.3236 C.ar    1  UNL1        0.0178
     24 C         139.4077  140.3953  169.8151 C.ar    1  UNL1        0.0986
     25 N         139.8776  141.5515  170.6471 N.ar    1  UNL1       -0.2423
     26 C         140.5014  142.7457  169.9876 C.ar    1  UNL1        0.0986
     27 C         140.6551  142.7835  168.4959 C.ar    1  UNL1        0.0178
@<TRIPOS>BOND
     1    16    17   am
     2    17    18    2
     3    17    10    1
     4    10    11   ar
     5    11    12   ar
     6    12    13   ar
     7    13    14   ar
     8    14     9    1
     9     1     9    1
    10     1     2    1
    11     3     2    1
    12     3     4    1
    13     4     5    1
    14     6     5    1
    15     6     7    1
    16     6     8    1
    17     8    21    1
    18    21    22    1
    19    22    23   ar
    20    23    24   ar
    21    24    25   ar
    22    25    26   ar
    23    26    27   ar
    24    14    15   ar
    25    15    10   ar
    26     7     1    1
    27    27    22   ar
    28     8     3    1
    29    16    19    1
    30    16    20    1
@<TRIPOS>MOLECULE
*****
 27 30 0 0 0
SMALL
GASTEIGER

@<TRIPOS>ATOM
      1 C         140.0632  141.0569  164.5034 C.3     1  UNL1        0.1686
      2 C         139.0031  140.1520  165.0577 C.3     1  UNL1        0.0595
      3 C         138.7506  138.8163  164.4236 C.3     1  UNL1        0.0614
      4 C         138.8436  137.6304  163.5097 C.3     1  UNL1        0.0175
      5 C         139.9220  137.9041  162.5037 C.3     1  UNL1        0.0175
      6 C         140.4955  139.2591  162.7958 C.3     1  UNL1        0.0614
      7 C         140.8709  140.6260  163.3151 C.3     1  UNL1        0.0595
      8 N         139.7715  139.8228  163.9824 N.3     1  UNL1       -0.2713
      9 O         140.3158  142.3927  165.1375 O.3     1  UNL1       -0.4791
     10 C         141.0103  143.0304  168.9924 C.ar    1  UNL1        0.0561
     11 C         142.4552  142.6393  169.0886 C.ar    1  UNL1        0.0047
     12 C         143.1870  142.1660  167.8678 C.ar    1  UNL1        0.0033
     13 C         142.4738  142.0838  166.5508 C.ar    1  UNL1        0.0369
     14 C         141.0289  142.4749  166.4546 C.ar    1  UNL1        0.1385
     15 C         140.2971  142.9482  167.6753 C.ar    1  UNL1        0.0414
     16 N         139.9173  142.5301  171.2957 N.am    1  UNL1       -0.3253
     17 C         140.2785  143.5037  170.2133 C.2     1  UNL1        0.2428
     18 O         139.9080  144.9507  170.3518 O.2     1  UNL1       -0.2704
     19 H         139.4370  142.8407  172.0970 H       1  UNL1        0.1453
     20 H         140.1604  141.5804  171.2048 H       1  UNL1        0.1453
     21 C         140.0239  141.1586  164.6164 C.3     1  UNL1        0.0992
     22 C         139.5688  142.4125  163.9305 C.ar    1  UNL1       -0.0031
     23 C         138.1456  142.8667  164.0651 C.ar    1  UNL1        0.0178
     24 C         137.6904  144.1205  163.3792 C.ar    1  UNL1        0.0986
     25 N         138.6584  144.9202  162.5586 N.ar    1  UNL1       -0.2423
     26 C         140.0817  144.4660  162.4239 C.ar    1  UNL1        0.0986
     27 C         140.5368  143.2121  163.1099 C.ar    1  UNL1        0.0178
@<TRIPOS>BOND
     1    16    17   am
     2    17    18    2
     3    17    10    1
     4    10    11   ar
     5    11    12   ar
     6    12    13   ar
     7    13    14   ar
     8    14     9    1
     9     1     9    1
    10     1     2    1
    11     3     2    1
    12     3     4    1
    13     4     5    1
    14     6     5    1
    15     6     7    1
    16     6     8    1
    17     8    21    1
    18    21    22    1
    19    22    23   ar
    20    23    24   ar
    21    24    25   ar
    22    25    26   ar
    23    26    27   ar
    24    14    15   ar
    25    15    10   ar
    26     7     1    1
    27    27    22   ar
    28     8     3    1
    29    16    19    1
    30    16    20    1
@<TRIPOS>MOLECULE
*****
 27 30 0 0 0
SMALL
GASTEIGER

@<TRIPOS>ATOM
      1 C         141.7701  140.4428  165.4046 C.3     1  UNL1        0.1686
      2 C         142.5252  141.6015  164.8241 C.3     1  UNL1        0.0595
      3 C         143.9329  141.4131  164.3415 C.3     1  UNL1        0.0614
      4 C         145.2534  140.7869  164.0035 C.3     1  UNL1        0.0175
      5 C         145.1941  139.3402  164.3953 C.3     1  UNL1        0.0175
      6 C         143.8370  139.0722  164.9753 C.3     1  UNL1        0.0614
      7 C         142.4226  139.0957  165.5026 C.3     1  UNL1        0.0595
      8 N         143.0575  140.3534  164.9421 N.3     1  UNL1       -0.2713
      9 O         140.3623  140.6311  165.8873 O.3     1  UNL1       -0.4791
     10 C         140.3835  142.4542  169.4123 C.ar    1  UNL1        0.0561
     11 C         139.5701  141.4966  170.2316 C.ar    1  UNL1        0.0047
     12 C         139.0207  140.2505  169.6028 C.ar    1  UNL1        0.0033
     13 C         139.2848  139.9620  168.1547 C.ar    1  UNL1        0.0369
     14 C         140.0982  140.9196  167.3354 C.ar    1  UNL1        0.1385
     15 C         140.6476  142.1657  167.9641 C.ar    1  UNL1        0.0414
     16 N         142.3678  143.7515  170.4750 N.am    1  UNL1       -0.3253
     17 C         140.9329  143.7003  170.0411 C.2     1  UNL1        0.2428
     18 O         140.0472  144.8952  170.2360 O.2     1  UNL1       -0.2704
     19 H         142.7284  144.5694  170.8878 H       1  UNL1        0.1453
     20 H         142.9491  142.9673  170.3471 H       1  UNL1        0.1453
     21 C         141.6498  140.5418  165.4247 C.3     1  UNL1        0.0992
     22 C         140.5004  140.0531  164.5939 C.ar    1  UNL1       -0.0031
     23 C         140.0488  138.6269  164.7035 C.ar    1  UNL1        0.0178
     24 C         138.8994  138.1383  163.8728 C.ar    1  UNL1        0.0986
     25 N         138.2017  139.0758  162.9325 N.ar    1  UNL1       -0.2423
     26 C         138.6533  140.5021  162.8229 C.ar    1  UNL1        0.0986
     27 C         139.8027  140.9906  163.6537 C.ar    1  UNL1        0.0178
@<TRIPOS>BOND
     1    16    17   am
     2    17    18    2
     3    17    10    1
     4    10    11   ar
     5    11    12   ar
     6    12    13   ar
     7    13    14   ar
     8    14     9    1
     9     1     9    1
    10     1     2    1
    11     3     2    1
    12     3     4    1
    13     4     5    1
    14     6     5    1
    15     6     7    1
    16     6     8    1
    17     8    21    1
    18    21    22    1
    19    22    23   ar
    20    23    24   ar
    21    24    25   ar
    22    25    26   ar
    23    26    27   ar
    24    14    15   ar
    25    15    10   ar
    26     7     1    1
    27    27    22   ar
    28     8     3    1
    29    16    19    1
    30    16    20    1
@<TRIPOS>MOLECULE
*****
 27 30 0 0 0
SMALL
GASTEIGER

@<TRIPOS>ATOM
      1 C         142.3727  141.5210  165.8790 C.3     1  UNL1        0.1686
      2 C         143.3259  142.5455  165.3388 C.3     1  UNL1        0.0595
      3 C         144.5516  142.1094  164.5921 C.3     1  UNL1        0.0614
      4 C         145.5958  141.2514  163.9414 C.3     1  UNL1        0.0175
      5 C         145.2027  139.8167  164.1340 C.3     1  UNL1        0.0175
      6 C         143.9155  139.7880  164.9037 C.3     1  UNL1        0.0614
      7 C         142.6451  140.0605  165.6724 C.3     1  UNL1        0.0595
      8 N         143.5131  141.2050  165.1868 N.3     1  UNL1       -0.2713
      9 O         141.1470  141.9570  166.6258 O.3     1  UNL1       -0.4791
     10 C         138.3036  142.8666  164.0109 C.ar    1  UNL1        0.0561
     11 C         137.9017  144.2294  164.4918 C.ar    1  UNL1        0.0047
     12 C         138.5815  144.8347  165.6840 C.ar    1  UNL1        0.0033
     13 C         139.6633  144.0773  166.3953 C.ar    1  UNL1        0.0369
     14 C         140.0652  142.7145  165.9144 C.ar    1  UNL1        0.1385
     15 C         139.3854  142.1091  164.7223 C.ar    1  UNL1        0.0414
     16 N         136.9280  140.9382  162.9436 N.am    1  UNL1       -0.3253
     17 C         137.6237  142.2612  162.8188 C.2     1  UNL1        0.2428
     18 O         137.6395  142.9790  161.5016 O.2     1  UNL1       -0.2704
     19 H         136.4818  140.5409  162.1611 H       1  UNL1        0.1453
     20 H         136.9176  140.4671  163.8080 H       1  UNL1        0.1453
     21 C         142.2875  141.6411  165.9336 C.3     1  UNL1        0.0992
     22 C         142.1767  141.3855  167.4075 C.ar    1  UNL1       -0.0031
     23 C         142.9538  142.2278  168.3752 C.ar    1  UNL1        0.0178
     24 C         142.8430  141.9723  169.8491 C.ar    1  UNL1        0.0986
     25 N         141.9550  140.8744  170.3553 N.ar    1  UNL1       -0.2423
     26 C         141.1778  140.0321  169.3875 C.ar    1  UNL1        0.0986
     27 C         141.2887  140.2877  167.9136 C.ar    1  UNL1        0.0178
@<TRIPOS>BOND
     1    16    17   am
     2    17    18    2
     3    17    10    1
     4    10    11   ar
     5    11    12   ar
     6    12    13   ar
     7    13    14   ar
     8    14     9    1
     9     1     9    1
    10     1     2    1
    11     3     2    1
    12     3     4    1
    13     4     5    1
    14     6     5    1
    15     6     7    1
    16     6     8    1
    17     8    21    1
    18    21    22    1
    19    22    23   ar
    20    23    24   ar
    21    24    25   ar
    22    25    26   ar
    23    26    27   ar
    24    14    15   ar
    25    15    10   ar
    26     7     1    1
    27    27    22   ar
    28     8     3    1
    29    16    19    1
    30    16    20    1
@<TRIPOS>MOLECULE
*****
 27 30 0 0 0
SMALL
GASTEIGER

@<TRIPOS>ATOM
      1 C         140.9259  142.5529  164.5078 C.3     1  UNL1        0.1686
      2 C         140.1490  143.6552  165.1645 C.3     1  UNL1        0.0595
      3 C         138.7649  143.9836  164.6888 C.3     1  UNL1        0.0614
      4 C         137.4787  143.9613  163.9172 C.3     1  UNL1        0.0175
      5 C         137.5767  142.8781  162.8842 C.3     1  UNL1        0.0175
      6 C         138.9234  142.2309  163.0174 C.3     1  UNL1        0.0614
      7 C         140.3186  141.7790  163.3754 C.3     1  UNL1        0.0595
      8 N         139.6577  142.9142  164.1327 N.3     1  UNL1       -0.2713
      9 O         142.3101  142.2243  164.9835 O.3     1  UNL1       -0.4791
     10 C         143.1040  141.8249  168.8513 C.ar    1  UNL1        0.0561
     11 C         142.9127  140.3478  169.0289 C.ar    1  UNL1        0.0047
     12 C         142.5205  139.4963  167.8580 C.ar    1  UNL1        0.0033
     13 C         142.3196  140.1217  166.5096 C.ar    1  UNL1        0.0369
     14 C         142.5109  141.5988  166.3320 C.ar    1  UNL1        0.1385
     15 C         142.9031  142.4504  167.5028 C.ar    1  UNL1        0.0414
     16 N         144.9447  142.9539  170.2960 N.am    1  UNL1       -0.3253
     17 C         143.4962  142.6765  170.0221 C.2     1  UNL1        0.2428
     18 O         142.4400  143.2507  170.9192 O.2     1  UNL1       -0.2704
     19 H         145.2021  143.5128  171.0645 H       1  UNL1        0.1453
     20 H         145.6380  142.5770  169.7073 H       1  UNL1        0.1453
     21 C         141.0418  142.5858  164.6084 C.3     1  UNL1        0.0992
     22 C         142.2341  143.0547  163.8283 C.ar    1  UNL1       -0.0031
     23 C         142.9596  142.1036  162.9234 C.ar    1  UNL1        0.0178
     24 C         144.1518  142.5725  162.1432 C.ar    1  UNL1        0.0986
     25 N         144.6185  143.9926  162.2679 N.ar    1  UNL1       -0.2423
     26 C         143.8929  144.9438  163.1729 C.ar    1  UNL1        0.0986
     27 C         142.7007  144.4748  163.9530 C.ar    1  UNL1        0.0178
@<TRIPOS>BOND
     1    16    17   am
     2    17    18    2
     3    17    10    1
     4    10    11   ar
     5    11    12   ar
     6    12    13   ar
     7    13    14   ar
     8    14     9    1
     9     1     9    1
    10     1     2    1
    11     3     2    1
    12     3     4    1
    13     4     5    1
    14     6     5    1
    15     6     7    1
    16     6     8    1
    17     8    21    1
    18    21    22    1
    19    22    23   ar
    20    23    24   ar
    21    24    25   ar
    22    25    26   ar
    23    26    27   ar
    24    14    15   ar
    25    15    10   ar
    26     7     1    1
    27    27    22   ar
    28     8     3    1
    29    16    19    1
    30    16    20    1
