@<TRIPOS>MOLECULE
*****
 37 42 0 0 0
SMALL
GASTEIGER

@<TRIPOS>ATOM
      1 C         140.7233  141.4333  166.6723 C.ar    1  UNL1        0.0844
      2 N         140.4429  141.3193  168.1414 N.ar    1  UNL1       -0.2240
      3 C         141.2131  140.3414  168.9782 C.ar    1  UNL1        0.1988
      4 N         142.2637  139.4774  168.3460 N.ar    1  UNL1       -0.2240
      5 C         142.5441  139.5914  166.8769 C.ar    1  UNL1        0.0845
      6 C         143.5947  138.7274  166.2446 C.ar    1  UNL1        0.0192
      7 C         143.8751  138.8414  164.7755 C.ar    1  UNL1        0.0016
      8 C         143.1049  139.8194  163.9386 C.ar    1  UNL1        0.0016
      9 C         142.0543  140.6834  164.5708 C.ar    1  UNL1        0.0030
     10 C         141.7739  140.5693  166.0400 C.ar    1  UNL1        0.0354
     11 C         143.3853  139.9334  162.4695 C.ar    1  UNL1        0.0192
     12 C         143.6059  138.6966  161.6498 C.ar    1  UNL1        0.0988
     13 N         143.8863  138.8105  160.1807 N.ar    1  UNL1       -0.2438
     14 C         143.9462  140.1613  159.5311 C.ar    1  UNL1        0.0813
     15 C         144.2266  140.2753  158.0620 C.ar    1  UNL1        0.0191
     16 C         144.2865  141.6260  157.4125 C.ar    1  UNL1        0.0015
     17 C         144.0659  142.8628  158.2321 C.ar    1  UNL1        0.0001
     18 C         143.7855  142.7488  159.7012 C.ar    1  UNL1        0.0015
     19 C         143.7256  141.3980  160.3507 C.ar    1  UNL1        0.0177
     20 C         143.4452  141.2841  161.8199 C.ar    1  UNL1        0.0030
     21 C         138.8050  143.0369  163.5903 C.ar    1  UNL1        0.0536
     22 C         138.4127  144.3673  164.1615 C.ar    1  UNL1        0.0045
     23 C         138.7907  144.7196  165.5697 C.ar    1  UNL1        0.0002
     24 C         139.5609  143.7416  166.4066 C.ar    1  UNL1        0.0015
     25 C         139.9531  142.4113  165.8354 C.ar    1  UNL1        0.0179
     26 C         139.5752  142.0590  164.4272 C.ar    1  UNL1        0.0060
     27 C         140.9626  144.8421  156.1683 C.3     1  UNL1        0.0948
     28 C         141.3405  145.1945  157.5765 C.2     1  UNL1        0.2262
     29 O         142.4468  146.1744  157.8333 O.2     1  UNL1       -0.2749
     30 N         140.6122  144.5670  158.7279 N.am    1  UNL1       -0.2760
     31 C         140.9901  144.9194  160.1361 C.3     1  UNL1        0.1149
     32 C         140.2618  144.2919  161.2875 C.3     1  UNL1        0.1152
     33 N         139.1554  143.3120  161.0307 N.am    1  UNL1       -0.2726
     34 C         138.4271  142.6845  162.1821 C.2     1  UNL1        0.2491
     35 O         137.3207  141.7046  161.9253 O.2     1  UNL1       -0.2699
     36 C         138.7775  142.9596  159.6225 C.3     1  UNL1        0.1152
     37 C         139.5059  143.5871  158.4711 C.3     1  UNL1        0.1149
@<TRIPOS>BOND
     1    27    28    1
     2    28    29    2
     3    28    30   am
     4    30    31    1
     5    31    32    1
     6    32    33    1
     7    33    34   am
     8    34    35    2
     9    34    21    1
    10    21    22   ar
    11    22    23   ar
    12    23    24   ar
    13    24    25   ar
    14    25     1    1
    15     1     2   ar
    16     2     3   ar
    17     3     4   ar
    18     4     5   ar
    19     5     6   ar
    20     6     7   ar
    21     7     8   ar
    22     8    11    1
    23    11    12   ar
    24    12    13   ar
    25    13    14   ar
    26    14    15   ar
    27    15    16   ar
    28    16    17   ar
    29    17    18   ar
    30    18    19   ar
    31    19    20   ar
    32     8     9   ar
    33     9    10   ar
    34    25    26   ar
    35    33    36    1
    36    36    37    1
    37    37    30    1
    38    26    21   ar
    39    10     1   ar
    40    10     5   ar
    41    20    11   ar
    42    19    14   ar
@<TRIPOS>MOLECULE
*****
 37 42 0 0 0
SMALL
GASTEIGER

@<TRIPOS>ATOM
      1 C         141.0030  141.5868  166.7618 C.ar    1  UNL1        0.0844
      2 N         140.8955  141.8143  168.2405 N.ar    1  UNL1       -0.2240
      3 C         140.0052  140.9384  169.0712 C.ar    1  UNL1        0.1988
      4 N         139.2225  139.8351  168.4233 N.ar    1  UNL1       -0.2240
      5 C         139.3300  139.6076  166.9445 C.ar    1  UNL1        0.0845
      6 C         138.5472  138.5042  166.2966 C.ar    1  UNL1        0.0192
      7 C         138.6548  138.2767  164.8179 C.ar    1  UNL1        0.0016
      8 C         139.5451  139.1526  163.9870 C.ar    1  UNL1        0.0016
      9 C         140.3279  140.2559  164.6350 C.ar    1  UNL1        0.0030
     10 C         140.2203  140.4834  166.1138 C.ar    1  UNL1        0.0354
     11 C         139.6526  138.9250  162.5083 C.ar    1  UNL1        0.0192
     12 C         138.4295  139.0152  161.6447 C.ar    1  UNL1        0.0988
     13 N         138.5370  138.7877  160.1660 N.ar    1  UNL1       -0.2438
     14 C         139.8677  138.4700  159.5508 C.ar    1  UNL1        0.0813
     15 C         139.9752  138.2425  158.0721 C.ar    1  UNL1        0.0191
     16 C         141.3059  137.9249  157.4570 C.ar    1  UNL1        0.0015
     17 C         142.5290  137.8347  158.3205 C.ar    1  UNL1        0.0001
     18 C         142.4215  138.0622  159.7992 C.ar    1  UNL1        0.0015
     19 C         141.0908  138.3799  160.4144 C.ar    1  UNL1        0.0177
     20 C         140.9833  138.6074  161.8932 C.ar    1  UNL1        0.0030
     21 C         142.2223  144.0727  163.9186 C.ar    1  UNL1        0.0536
     22 C         143.6739  144.2144  164.2693 C.ar    1  UNL1        0.0045
     23 C         144.2352  143.4803  165.4508 C.ar    1  UNL1        0.0002
     24 C         143.3448  142.6044  166.2816 C.ar    1  UNL1        0.0015
     25 C         141.8934  142.4627  165.9309 C.ar    1  UNL1        0.0179
     26 C         141.3321  143.1968  164.7494 C.ar    1  UNL1        0.0060
     27 C         142.6006  143.8657  155.9931 C.3     1  UNL1        0.0948
     28 C         143.1619  143.1316  157.1746 C.2     1  UNL1        0.2262
     29 O         144.0983  141.9786  156.9655 O.2     1  UNL1       -0.2749
     30 N         142.7867  143.5504  158.5652 N.am    1  UNL1       -0.2760
     31 C         143.3479  142.8162  159.7467 C.3     1  UNL1        0.1149
     32 C         142.9727  143.2350  161.1373 C.3     1  UNL1        0.1152
     33 N         142.0363  144.3880  161.3464 N.am    1  UNL1       -0.2726
     34 C         141.6611  144.8068  162.7370 C.2     1  UNL1        0.2491
     35 O         140.7246  145.9599  162.9461 O.2     1  UNL1       -0.2699
     36 C         141.4750  145.1222  160.1649 C.3     1  UNL1        0.1152
     37 C         141.8502  144.7033  158.7742 C.3     1  UNL1        0.1149
@<TRIPOS>BOND
     1    27    28    1
     2    28    29    2
     3    28    30   am
     4    30    31    1
     5    31    32    1
     6    32    33    1
     7    33    34   am
     8    34    35    2
     9    34    21    1
    10    21    22   ar
    11    22    23   ar
    12    23    24   ar
    13    24    25   ar
    14    25     1    1
    15     1     2   ar
    16     2     3   ar
    17     3     4   ar
    18     4     5   ar
    19     5     6   ar
    20     6     7   ar
    21     7     8   ar
    22     8    11    1
    23    11    12   ar
    24    12    13   ar
    25    13    14   ar
    26    14    15   ar
    27    15    16   ar
    28    16    17   ar
    29    17    18   ar
    30    18    19   ar
    31    19    20   ar
    32     8     9   ar
    33     9    10   ar
    34    25    26   ar
    35    33    36    1
    36    36    37    1
    37    37    30    1
    38    26    21   ar
    39    10     1   ar
    40    10     5   ar
    41    20    11   ar
    42    19    14   ar
@<TRIPOS>MOLECULE
*****
 37 42 0 0 0
SMALL
GASTEIGER

@<TRIPOS>ATOM
      1 C         141.2377  142.1892  166.7078 C.ar    1  UNL1        0.0844
      2 N         141.2138  142.5620  168.1606 N.ar    1  UNL1       -0.2240
      3 C         141.8402  141.6551  169.1779 C.ar    1  UNL1        0.1988
      4 N         142.4904  140.3754  168.7425 N.ar    1  UNL1       -0.2240
      5 C         142.5142  140.0026  167.2898 C.ar    1  UNL1        0.0845
      6 C         143.1645  138.7229  166.8545 C.ar    1  UNL1        0.0192
      7 C         143.1883  138.3501  165.4018 C.ar    1  UNL1        0.0016
      8 C         142.5619  139.2570  164.3843 C.ar    1  UNL1        0.0016
      9 C         141.9117  140.5368  164.8197 C.ar    1  UNL1        0.0030
     10 C         141.8879  140.9095  166.2725 C.ar    1  UNL1        0.0354
     11 C         142.5857  138.8843  162.9316 C.ar    1  UNL1        0.0192
     12 C         143.8623  138.4158  162.2983 C.ar    1  UNL1        0.0988
     13 N         143.8861  138.0431  160.8456 N.ar    1  UNL1       -0.2438
     14 C         142.6334  138.1387  160.0261 C.ar    1  UNL1        0.0813
     15 C         142.6572  137.7659  158.5734 C.ar    1  UNL1        0.0191
     16 C         141.4045  137.8615  157.7539 C.ar    1  UNL1        0.0015
     17 C         140.1280  138.3299  158.3871 C.ar    1  UNL1        0.0001
     18 C         140.1042  138.7027  159.8398 C.ar    1  UNL1        0.0015
     19 C         141.3569  138.6071  160.6593 C.ar    1  UNL1        0.0177
     20 C         141.3330  138.9799  162.1121 C.ar    1  UNL1        0.0030
     21 C         140.5387  144.0636  163.2803 C.ar    1  UNL1        0.0536
     22 C         139.3585  144.9101  163.6555 C.ar    1  UNL1        0.0045
     23 C         138.8047  144.8496  165.0483 C.ar    1  UNL1        0.0002
     24 C         139.4312  143.9426  166.0657 C.ar    1  UNL1        0.0015
     25 C         140.6113  143.0962  165.6904 C.ar    1  UNL1        0.0179
     26 C         141.1650  143.1567  164.2977 C.ar    1  UNL1        0.0060
     27 C         138.8398  141.3323  156.0240 C.3     1  UNL1        0.0948
     28 C         138.2861  141.2718  157.4167 C.2     1  UNL1        0.2262
     29 O         137.0306  140.4982  157.6917 O.2     1  UNL1       -0.2749
     30 N         138.9876  141.9849  158.5344 N.am    1  UNL1       -0.2760
     31 C         138.4339  141.9244  159.9271 C.3     1  UNL1        0.1149
     32 C         139.1355  142.6374  161.0448 C.3     1  UNL1        0.1152
     33 N         140.3909  143.4110  160.7698 N.am    1  UNL1       -0.2726
     34 C         141.0925  144.1241  161.8875 C.2     1  UNL1        0.2491
     35 O         142.3479  144.8977  161.6125 O.2     1  UNL1       -0.2699
     36 C         140.9446  143.4715  159.3771 C.3     1  UNL1        0.1152
     37 C         140.2430  142.7584  158.2594 C.3     1  UNL1        0.1149
@<TRIPOS>BOND
     1    27    28    1
     2    28    29    2
     3    28    30   am
     4    30    31    1
     5    31    32    1
     6    32    33    1
     7    33    34   am
     8    34    35    2
     9    34    21    1
    10    21    22   ar
    11    22    23   ar
    12    23    24   ar
    13    24    25   ar
    14    25     1    1
    15     1     2   ar
    16     2     3   ar
    17     3     4   ar
    18     4     5   ar
    19     5     6   ar
    20     6     7   ar
    21     7     8   ar
    22     8    11    1
    23    11    12   ar
    24    12    13   ar
    25    13    14   ar
    26    14    15   ar
    27    15    16   ar
    28    16    17   ar
    29    17    18   ar
    30    18    19   ar
    31    19    20   ar
    32     8     9   ar
    33     9    10   ar
    34    25    26   ar
    35    33    36    1
    36    36    37    1
    37    37    30    1
    38    26    21   ar
    39    10     1   ar
    40    10     5   ar
    41    20    11   ar
    42    19    14   ar
@<TRIPOS>MOLECULE
*****
 37 42 0 0 0
SMALL
GASTEIGER

@<TRIPOS>ATOM
      1 C         141.4456  141.5196  167.3096 C.ar    1  UNL1        0.0844
      2 N         141.7075  141.4724  168.7858 N.ar    1  UNL1       -0.2240
      3 C         140.8307  140.6434  169.6768 C.ar    1  UNL1        0.1988
      4 N         139.6920  139.8618  169.0917 N.ar    1  UNL1       -0.2240
      5 C         139.4301  139.9090  167.6156 C.ar    1  UNL1        0.0845
      6 C         138.2914  139.1273  167.0305 C.ar    1  UNL1        0.0192
      7 C         138.0295  139.1746  165.5543 C.ar    1  UNL1        0.0016
      8 C         138.9063  140.0036  164.6631 C.ar    1  UNL1        0.0016
      9 C         140.0450  140.7853  165.2482 C.ar    1  UNL1        0.0030
     10 C         140.3069  140.7380  166.7245 C.ar    1  UNL1        0.0354
     11 C         138.6444  140.0508  163.1870 C.ar    1  UNL1        0.0192
     12 C         138.1899  138.8164  162.4660 C.ar    1  UNL1        0.0988
     13 N         137.9280  138.8637  160.9898 N.ar    1  UNL1       -0.2438
     14 C         138.1205  140.1453  160.2346 C.ar    1  UNL1        0.0813
     15 C         137.8586  140.1926  158.7584 C.ar    1  UNL1        0.0191
     16 C         138.0511  141.4742  158.0032 C.ar    1  UNL1        0.0015
     17 C         138.5056  142.7086  158.7241 C.ar    1  UNL1        0.0001
     18 C         138.7675  142.6613  160.2003 C.ar    1  UNL1        0.0015
     19 C         138.5750  141.3797  160.9555 C.ar    1  UNL1        0.0177
     20 C         138.8369  141.3325  162.4317 C.ar    1  UNL1        0.0030
     21 C         142.6728  143.6821  164.2164 C.ar    1  UNL1        0.0536
     22 C         144.0759  144.0065  164.6361 C.ar    1  UNL1        0.0045
     23 C         144.6023  143.5019  165.9470 C.ar    1  UNL1        0.0002
     24 C         143.7254  142.6729  166.8382 C.ar    1  UNL1        0.0015
     25 C         142.3224  142.3486  166.4184 C.ar    1  UNL1        0.0179
     26 C         141.7961  142.8532  165.1076 C.ar    1  UNL1        0.0060
     27 C         143.1160  141.9127  156.4917 C.3     1  UNL1        0.0948
     28 C         143.6424  141.4081  157.8025 C.2     1  UNL1        0.2262
     29 O         144.5427  140.2088  157.8376 O.2     1  UNL1       -0.2749
     30 N         143.2684  142.1027  159.0783 N.am    1  UNL1       -0.2760
     31 C         143.7947  141.5982  160.3891 C.3     1  UNL1        0.1149
     32 C         143.4208  142.2928  161.6649 C.3     1  UNL1        0.1152
     33 N         142.5204  143.4921  161.6298 N.am    1  UNL1       -0.2726
     34 C         142.1465  144.1867  162.9056 C.2     1  UNL1        0.2491
     35 O         141.2461  145.3860  162.8705 O.2     1  UNL1       -0.2699
     36 C         141.9941  143.9967  160.3190 C.3     1  UNL1        0.1152
     37 C         142.3681  143.3020  159.0432 C.3     1  UNL1        0.1149
@<TRIPOS>BOND
     1    27    28    1
     2    28    29    2
     3    28    30   am
     4    30    31    1
     5    31    32    1
     6    32    33    1
     7    33    34   am
     8    34    35    2
     9    34    21    1
    10    21    22   ar
    11    22    23   ar
    12    23    24   ar
    13    24    25   ar
    14    25     1    1
    15     1     2   ar
    16     2     3   ar
    17     3     4   ar
    18     4     5   ar
    19     5     6   ar
    20     6     7   ar
    21     7     8   ar
    22     8    11    1
    23    11    12   ar
    24    12    13   ar
    25    13    14   ar
    26    14    15   ar
    27    15    16   ar
    28    16    17   ar
    29    17    18   ar
    30    18    19   ar
    31    19    20   ar
    32     8     9   ar
    33     9    10   ar
    34    25    26   ar
    35    33    36    1
    36    36    37    1
    37    37    30    1
    38    26    21   ar
    39    10     1   ar
    40    10     5   ar
    41    20    11   ar
    42    19    14   ar
@<TRIPOS>MOLECULE
*****
 37 42 0 0 0
SMALL
GASTEIGER

@<TRIPOS>ATOM
      1 C         141.5129  143.7923  161.5000 C.ar    1  UNL1        0.0844
      2 N         141.3705  144.6465  160.2753 N.ar    1  UNL1       -0.2240
      3 C         140.2929  145.6878  160.2083 C.ar    1  UNL1        0.1988
      4 N         139.3577  145.8748  161.3660 N.ar    1  UNL1       -0.2240
      5 C         139.5001  145.0206  162.5908 C.ar    1  UNL1        0.0845
      6 C         138.5648  145.2076  163.7485 C.ar    1  UNL1        0.0192
      7 C         138.7072  144.3534  164.9732 C.ar    1  UNL1        0.0016
      8 C         139.7848  143.3121  165.0403 C.ar    1  UNL1        0.0016
      9 C         140.7201  143.1251  163.8826 C.ar    1  UNL1        0.0030
     10 C         140.5777  143.9794  162.6578 C.ar    1  UNL1        0.0354
     11 C         139.9272  142.4579  166.2650 C.ar    1  UNL1        0.0192
     12 C         139.5534  141.0061  166.2145 C.ar    1  UNL1        0.0988
     13 N         139.6957  140.1519  167.4392 N.ar    1  UNL1       -0.2438
     14 C         140.2119  140.7494  168.7145 C.ar    1  UNL1        0.0813
     15 C         140.3543  139.8952  169.9393 C.ar    1  UNL1        0.0191
     16 C         140.8704  140.4928  171.2146 C.ar    1  UNL1        0.0015
     17 C         141.2442  141.9446  171.2652 C.ar    1  UNL1        0.0001
     18 C         141.1019  142.7988  170.0405 C.ar    1  UNL1        0.0015
     19 C         140.5857  142.2012  168.7651 C.ar    1  UNL1        0.0177
     20 C         140.4434  143.0555  167.5404 C.ar    1  UNL1        0.0030
     21 C         143.3867  140.3088  161.1778 C.ar    1  UNL1        0.0536
     22 C         144.7458  140.6684  161.7012 C.ar    1  UNL1        0.0045
     23 C         145.0271  142.0693  162.1575 C.ar    1  UNL1        0.0002
     24 C         143.9495  143.1106  162.0905 C.ar    1  UNL1        0.0015
     25 C         142.5905  142.7510  161.5671 C.ar    1  UNL1        0.0179
     26 C         142.3092  141.3501  161.1108 C.ar    1  UNL1        0.0060
     27 C         142.6649  136.2360  154.4036 C.3     1  UNL1        0.0948
     28 C         142.9462  137.6369  154.8599 C.2     1  UNL1        0.2262
     29 O         143.1878  138.7201  153.8507 O.2     1  UNL1       -0.2749
     30 N         142.9860  137.9546  156.3253 N.am    1  UNL1       -0.2760
     31 C         143.2674  139.3556  156.7816 C.3     1  UNL1        0.1149
     32 C         143.3072  139.6733  158.2470 C.3     1  UNL1        0.1152
     33 N         143.0656  138.5901  159.2561 N.am    1  UNL1       -0.2726
     34 C         143.1054  138.9078  160.7215 C.2     1  UNL1        0.2491
     35 O         142.8638  137.8246  161.7307 O.2     1  UNL1       -0.2699
     36 C         142.7842  137.1892  158.7998 C.3     1  UNL1        0.1152
     37 C         142.7444  136.8715  157.3343 C.3     1  UNL1        0.1149
@<TRIPOS>BOND
     1    27    28    1
     2    28    29    2
     3    28    30   am
     4    30    31    1
     5    31    32    1
     6    32    33    1
     7    33    34   am
     8    34    35    2
     9    34    21    1
    10    21    22   ar
    11    22    23   ar
    12    23    24   ar
    13    24    25   ar
    14    25     1    1
    15     1     2   ar
    16     2     3   ar
    17     3     4   ar
    18     4     5   ar
    19     5     6   ar
    20     6     7   ar
    21     7     8   ar
    22     8    11    1
    23    11    12   ar
    24    12    13   ar
    25    13    14   ar
    26    14    15   ar
    27    15    16   ar
    28    16    17   ar
    29    17    18   ar
    30    18    19   ar
    31    19    20   ar
    32     8     9   ar
    33     9    10   ar
    34    25    26   ar
    35    33    36    1
    36    36    37    1
    37    37    30    1
    38    26    21   ar
    39    10     1   ar
    40    10     5   ar
    41    20    11   ar
    42    19    14   ar
@<TRIPOS>MOLECULE
*****
 37 42 0 0 0
SMALL
GASTEIGER

@<TRIPOS>ATOM
      1 C         138.3420  140.5913  162.0688 C.ar    1  UNL1        0.0844
      2 N         137.5334  139.9973  160.9539 N.ar    1  UNL1       -0.2240
      3 C         137.2341  138.5275  160.9450 C.ar    1  UNL1        0.1988
      4 N         137.7435  137.6517  162.0511 N.ar    1  UNL1       -0.2240
      5 C         138.5521  138.2457  163.1661 C.ar    1  UNL1        0.0845
      6 C         139.0615  137.3699  164.2722 C.ar    1  UNL1        0.0192
      7 C         139.8701  137.9639  165.3872 C.ar    1  UNL1        0.0016
      8 C         140.1694  139.4337  165.3961 C.ar    1  UNL1        0.0016
      9 C         139.6601  140.3095  164.2900 C.ar    1  UNL1        0.0030
     10 C         138.8514  139.7155  163.1750 C.ar    1  UNL1        0.0354
     11 C         140.9781  140.0277  166.5111 C.ar    1  UNL1        0.0192
     12 C         142.2849  139.4049  166.9041 C.ar    1  UNL1        0.0988
     13 N         143.0935  139.9989  168.0191 N.ar    1  UNL1       -0.2438
     14 C         142.5954  141.2157  168.7411 C.ar    1  UNL1        0.0813
     15 C         143.4040  141.8097  169.8561 C.ar    1  UNL1        0.0191
     16 C         142.9059  143.0264  170.5782 C.ar    1  UNL1        0.0015
     17 C         141.5992  143.6492  170.1852 C.ar    1  UNL1        0.0001
     18 C         140.7905  143.0552  169.0702 C.ar    1  UNL1        0.0015
     19 C         141.2886  141.8385  168.3482 C.ar    1  UNL1        0.0177
     20 C         140.4799  141.2445  167.2332 C.ar    1  UNL1        0.0030
     21 C         140.0856  144.0680  161.2801 C.ar    1  UNL1        0.0536
     22 C         139.2399  145.0008  162.0955 C.ar    1  UNL1        0.0045
     23 C         138.0949  144.4637  162.9021 C.ar    1  UNL1        0.0002
     24 C         137.7956  142.9938  162.8932 C.ar    1  UNL1        0.0015
     25 C         138.6413  142.0611  162.0777 C.ar    1  UNL1        0.0179
     26 C         139.7863  142.5982  161.2712 C.ar    1  UNL1        0.0060
     27 C         141.8382  145.7371  153.7209 C.3     1  UNL1        0.0948
     28 C         140.6932  145.2000  154.5274 C.2     1  UNL1        0.2262
     29 O         139.4139  144.8116  153.8473 O.2     1  UNL1       -0.2749
     30 N         140.8276  145.0513  156.0139 N.am    1  UNL1       -0.2760
     31 C         139.6826  144.5142  156.8205 C.3     1  UNL1        0.1149
     32 C         139.8169  144.3655  158.3070 C.3     1  UNL1        0.1152
     33 N         141.0963  144.7539  158.9870 N.am    1  UNL1       -0.2726
     34 C         141.2306  144.6051  160.4736 C.2     1  UNL1        0.2491
     35 O         142.5100  144.9935  161.1536 O.2     1  UNL1       -0.2699
     36 C         142.2413  145.2910  158.1805 C.3     1  UNL1        0.1152
     37 C         142.1069  145.4397  156.6939 C.3     1  UNL1        0.1149
@<TRIPOS>BOND
     1    27    28    1
     2    28    29    2
     3    28    30   am
     4    30    31    1
     5    31    32    1
     6    32    33    1
     7    33    34   am
     8    34    35    2
     9    34    21    1
    10    21    22   ar
    11    22    23   ar
    12    23    24   ar
    13    24    25   ar
    14    25     1    1
    15     1     2   ar
    16     2     3   ar
    17     3     4   ar
    18     4     5   ar
    19     5     6   ar
    20     6     7   ar
    21     7     8   ar
    22     8    11    1
    23    11    12   ar
    24    12    13   ar
    25    13    14   ar
    26    14    15   ar
    27    15    16   ar
    28    16    17   ar
    29    17    18   ar
    30    18    19   ar
    31    19    20   ar
    32     8     9   ar
    33     9    10   ar
    34    25    26   ar
    35    33    36    1
    36    36    37    1
    37    37    30    1
    38    26    21   ar
    39    10     1   ar
    40    10     5   ar
    41    20    11   ar
    42    19    14   ar
@<TRIPOS>MOLECULE
*****
 37 42 0 0 0
SMALL
GASTEIGER

@<TRIPOS>ATOM
      1 C         140.6312  142.2183  165.9177 C.ar    1  UNL1        0.0844
      2 N         140.6090  142.7096  167.3348 N.ar    1  UNL1       -0.2240
      3 C         141.5140  142.0898  168.3578 C.ar    1  UNL1        0.1988
      4 N         142.4413  140.9785  167.9637 N.ar    1  UNL1       -0.2240
      5 C         142.4635  140.4871  166.5467 C.ar    1  UNL1        0.0845
      6 C         143.3908  139.3759  166.1527 C.ar    1  UNL1        0.0192
      7 C         143.4131  138.8845  164.7357 C.ar    1  UNL1        0.0016
      8 C         142.5080  139.5044  163.7126 C.ar    1  UNL1        0.0016
      9 C         141.5807  140.6156  164.1066 C.ar    1  UNL1        0.0030
     10 C         141.5585  141.1070  165.5237 C.ar    1  UNL1        0.0354
     11 C         142.5302  139.0130  162.2956 C.ar    1  UNL1        0.0192
     12 C         143.7857  138.4213  161.7265 C.ar    1  UNL1        0.0988
     13 N         143.8079  137.9299  160.3095 N.ar    1  UNL1       -0.2438
     14 C         142.5747  138.0302  159.4614 C.ar    1  UNL1        0.0813
     15 C         142.5970  137.5388  158.0444 C.ar    1  UNL1        0.0191
     16 C         141.3638  137.6391  157.1964 C.ar    1  UNL1        0.0015
     17 C         140.1083  138.2308  157.7653 C.ar    1  UNL1        0.0001
     18 C         140.0861  138.7222  159.1824 C.ar    1  UNL1        0.0015
     19 C         141.3193  138.6219  160.0304 C.ar    1  UNL1        0.0177
     20 C         141.2970  139.1133  161.4475 C.ar    1  UNL1        0.0030
     21 C         139.3965  144.3099  162.7792 C.ar    1  UNL1        0.0536
     22 C         137.9161  144.0779  162.8485 C.ar    1  UNL1        0.0045
     23 C         137.3408  143.2261  163.9409 C.ar    1  UNL1        0.0002
     24 C         138.2458  142.6062  164.9640 C.ar    1  UNL1        0.0015
     25 C         139.7261  142.8381  164.8946 C.ar    1  UNL1        0.0179
     26 C         140.3014  143.6900  163.8022 C.ar    1  UNL1        0.0060
     27 C         143.0517  143.4403  155.7875 C.3     1  UNL1        0.0948
     28 C         142.4764  142.5885  156.8800 C.2     1  UNL1        0.2262
     29 O         142.5272  141.0933  156.7707 O.2     1  UNL1       -0.2749
     30 N         141.8502  143.2318  158.0817 N.am    1  UNL1       -0.2760
     31 C         141.2749  142.3799  159.1741 C.3     1  UNL1        0.1149
     32 C         140.6488  143.0232  160.3758 C.3     1  UNL1        0.1152
     33 N         140.5979  144.5184  160.4851 N.am    1  UNL1       -0.2726
     34 C         139.9718  145.1617  161.6867 C.2     1  UNL1        0.2491
     35 O         139.9209  146.6569  161.7960 O.2     1  UNL1       -0.2699
     36 C         141.1732  145.3703  159.3926 C.3     1  UNL1        0.1152
     37 C         141.7994  144.7269  158.1909 C.3     1  UNL1        0.1149
@<TRIPOS>BOND
     1    27    28    1
     2    28    29    2
     3    28    30   am
     4    30    31    1
     5    31    32    1
     6    32    33    1
     7    33    34   am
     8    34    35    2
     9    34    21    1
    10    21    22   ar
    11    22    23   ar
    12    23    24   ar
    13    24    25   ar
    14    25     1    1
    15     1     2   ar
    16     2     3   ar
    17     3     4   ar
    18     4     5   ar
    19     5     6   ar
    20     6     7   ar
    21     7     8   ar
    22     8    11    1
    23    11    12   ar
    24    12    13   ar
    25    13    14   ar
    26    14    15   ar
    27    15    16   ar
    28    16    17   ar
    29    17    18   ar
    30    18    19   ar
    31    19    20   ar
    32     8     9   ar
    33     9    10   ar
    34    25    26   ar
    35    33    36    1
    36    36    37    1
    37    37    30    1
    38    26    21   ar
    39    10     1   ar
    40    10     5   ar
    41    20    11   ar
    42    19    14   ar
@<TRIPOS>MOLECULE
*****
 37 42 0 0 0
SMALL
GASTEIGER

@<TRIPOS>ATOM
      1 C         141.6748  140.9194  167.1756 C.ar    1  UNL1        0.0844
      2 N         141.9244  140.8258  168.6517 N.ar    1  UNL1       -0.2240
      3 C         142.9930  141.6658  169.2863 C.ar    1  UNL1        0.1988
      4 N         143.8118  142.5992  168.4448 N.ar    1  UNL1       -0.2240
      5 C         143.5622  142.6927  166.9687 C.ar    1  UNL1        0.0845
      6 C         144.3811  143.6261  166.1272 C.ar    1  UNL1        0.0192
      7 C         144.1314  143.7197  164.6511 C.ar    1  UNL1        0.0016
      8 C         143.0629  142.8797  164.0164 C.ar    1  UNL1        0.0016
      9 C         142.2440  141.9463  164.8579 C.ar    1  UNL1        0.0030
     10 C         142.4937  141.8528  166.3341 C.ar    1  UNL1        0.0354
     11 C         142.8132  142.9732  162.5404 C.ar    1  UNL1        0.0192
     12 C         142.4820  144.2973  161.9181 C.ar    1  UNL1        0.0988
     13 N         142.2323  144.3908  160.4420 N.ar    1  UNL1       -0.2438
     14 C         142.3139  143.1603  159.5881 C.ar    1  UNL1        0.0813
     15 C         142.0643  143.2538  158.1120 C.ar    1  UNL1        0.0191
     16 C         142.1459  142.0233  157.2581 C.ar    1  UNL1        0.0015
     17 C         142.4771  140.6992  157.8803 C.ar    1  UNL1        0.0001
     18 C         142.7268  140.6057  159.3564 C.ar    1  UNL1        0.0015
     19 C         142.6452  141.8363  160.2103 C.ar    1  UNL1        0.0177
     20 C         142.8948  141.7427  161.6865 C.ar    1  UNL1        0.0030
     21 C         139.7406  138.6835  164.5280 C.ar    1  UNL1        0.0536
     22 C         138.4692  138.3995  165.2716 C.ar    1  UNL1        0.0045
     23 C         138.2663  138.9555  166.6500 C.ar    1  UNL1        0.0002
     24 C         139.3349  139.7955  167.2846 C.ar    1  UNL1        0.0015
     25 C         140.6062  140.0794  166.5410 C.ar    1  UNL1        0.0179
     26 C         140.8091  139.5234  165.1626 C.ar    1  UNL1        0.0060
     27 C         138.7054  140.8636  156.9666 C.3     1  UNL1        0.0948
     28 C         138.5025  141.4196  158.3449 C.2     1  UNL1        0.2262
     29 O         137.9394  142.7986  158.5220 O.2     1  UNL1       -0.2749
     30 N         138.8627  140.5966  159.5461 N.am    1  UNL1       -0.2760
     31 C         138.6599  141.1526  160.9244 C.3     1  UNL1        0.1149
     32 C         139.0201  140.3296  162.1256 C.3     1  UNL1        0.1152
     33 N         139.5832  138.9505  161.9485 N.am    1  UNL1       -0.2726
     34 C         139.9434  138.1276  163.1497 C.2     1  UNL1        0.2491
     35 O         140.5065  136.7485  162.9726 O.2     1  UNL1       -0.2699
     36 C         139.7861  138.3946  160.5702 C.3     1  UNL1        0.1152
     37 C         139.4258  139.2176  159.3689 C.3     1  UNL1        0.1149
@<TRIPOS>BOND
     1    27    28    1
     2    28    29    2
     3    28    30   am
     4    30    31    1
     5    31    32    1
     6    32    33    1
     7    33    34   am
     8    34    35    2
     9    34    21    1
    10    21    22   ar
    11    22    23   ar
    12    23    24   ar
    13    24    25   ar
    14    25     1    1
    15     1     2   ar
    16     2     3   ar
    17     3     4   ar
    18     4     5   ar
    19     5     6   ar
    20     6     7   ar
    21     7     8   ar
    22     8    11    1
    23    11    12   ar
    24    12    13   ar
    25    13    14   ar
    26    14    15   ar
    27    15    16   ar
    28    16    17   ar
    29    17    18   ar
    30    18    19   ar
    31    19    20   ar
    32     8     9   ar
    33     9    10   ar
    34    25    26   ar
    35    33    36    1
    36    36    37    1
    37    37    30    1
    38    26    21   ar
    39    10     1   ar
    40    10     5   ar
    41    20    11   ar
    42    19    14   ar
@<TRIPOS>MOLECULE
*****
 37 42 0 0 0
SMALL
GASTEIGER

@<TRIPOS>ATOM
      1 C         141.3172  143.0124  160.2805 C.ar    1  UNL1        0.0844
      2 N         141.3740  143.7608  158.9818 N.ar    1  UNL1       -0.2240
      3 C         140.6920  145.0905  158.8521 C.ar    1  UNL1        0.1988
      4 N         139.9533  145.6718  160.0210 N.ar    1  UNL1       -0.2240
      5 C         139.8966  144.9234  161.3197 C.ar    1  UNL1        0.0845
      6 C         139.1579  145.5046  162.4887 C.ar    1  UNL1        0.0192
      7 C         139.1012  144.7562  163.7874 C.ar    1  UNL1        0.0016
      8 C         139.7832  143.4265  163.9172 C.ar    1  UNL1        0.0016
      9 C         140.5219  142.8452  162.7482 C.ar    1  UNL1        0.0030
     10 C         140.5786  143.5937  161.4495 C.ar    1  UNL1        0.0354
     11 C         139.7265  142.6781  165.2159 C.ar    1  UNL1        0.0192
     12 C         139.3657  141.2221  165.2273 C.ar    1  UNL1        0.0988
     13 N         139.3090  140.4737  166.5260 N.ar    1  UNL1       -0.2438
     14 C         139.6130  141.1812  167.8133 C.ar    1  UNL1        0.0813
     15 C         139.5563  140.4329  169.1120 C.ar    1  UNL1        0.0191
     16 C         139.8603  141.1404  170.3992 C.ar    1  UNL1        0.0015
     17 C         140.2210  142.5963  170.3878 C.ar    1  UNL1        0.0001
     18 C         140.2777  143.3447  169.0891 C.ar    1  UNL1        0.0015
     19 C         139.9737  142.6371  167.8018 C.ar    1  UNL1        0.0177
     20 C         140.0305  143.3856  166.5031 C.ar    1  UNL1        0.0030
     21 C         142.5056  139.5387  161.7875 C.ar    1  UNL1        0.0536
     22 C         143.3632  139.0233  160.6699 C.ar    1  UNL1        0.0045
     23 C         143.5388  139.8376  159.4225 C.ar    1  UNL1        0.0002
     24 C         142.8568  141.1674  159.2927 C.ar    1  UNL1        0.0015
     25 C         141.9992  141.6827  160.4103 C.ar    1  UNL1        0.0179
     26 C         141.8236  140.8684  161.6577 C.ar    1  UNL1        0.0060
     27 C         143.0728  140.4167  169.6556 C.3     1  UNL1        0.0948
     28 C         143.2484  141.2310  168.4082 C.2     1  UNL1        0.2262
     29 O         143.6536  142.6721  168.5041 O.2     1  UNL1       -0.2749
     30 N         143.0188  140.6044  167.0649 N.am    1  UNL1       -0.2760
     31 C         143.1944  141.4187  165.8175 C.3     1  UNL1        0.1149
     32 C         142.9648  140.7921  164.4742 C.3     1  UNL1        0.1152
     33 N         142.5595  139.3510  164.3782 N.am    1  UNL1       -0.2726
     34 C         142.3299  138.7243  163.0349 C.2     1  UNL1        0.2491
     35 O         141.9247  137.2832  162.9389 O.2     1  UNL1       -0.2699
     36 C         142.3839  138.5366  165.6256 C.3     1  UNL1        0.1152
     37 C         142.6136  139.1634  166.9689 C.3     1  UNL1        0.1149
@<TRIPOS>BOND
     1    27    28    1
     2    28    29    2
     3    28    30   am
     4    30    31    1
     5    31    32    1
     6    32    33    1
     7    33    34   am
     8    34    35    2
     9    34    21    1
    10    21    22   ar
    11    22    23   ar
    12    23    24   ar
    13    24    25   ar
    14    25     1    1
    15     1     2   ar
    16     2     3   ar
    17     3     4   ar
    18     4     5   ar
    19     5     6   ar
    20     6     7   ar
    21     7     8   ar
    22     8    11    1
    23    11    12   ar
    24    12    13   ar
    25    13    14   ar
    26    14    15   ar
    27    15    16   ar
    28    16    17   ar
    29    17    18   ar
    30    18    19   ar
    31    19    20   ar
    32     8     9   ar
    33     9    10   ar
    34    25    26   ar
    35    33    36    1
    36    36    37    1
    37    37    30    1
    38    26    21   ar
    39    10     1   ar
    40    10     5   ar
    41    20    11   ar
    42    19    14   ar
