@<TRIPOS>MOLECULE
*****
 41 44 0 0 0
SMALL
GASTEIGER

@<TRIPOS>ATOM
      1 C         142.8758  138.0797  159.9905 C.3     1  UNL1        0.0889
      2 C         142.3654  137.6548  158.6456 C.3     1  UNL1        0.0383
      3 C         142.9175  138.6003  157.6203 C.3     1  UNL1        0.0739
      4 N         143.7691  139.6097  158.3316 N.3     1  UNL1       -0.2700
      5 C         143.7434  139.2879  159.7965 C.3     1  UNL1        0.0919
      6 O         140.5586  139.0178  161.6490 O.2     1  UNL1       -0.2733
      7 C         141.4135  137.8825  162.1289 C.2     1  UNL1        0.2425
      8 N         142.5721  137.4135  161.2997 N.am    1  UNL1       -0.3032
      9 H         143.1331  136.6683  161.6147 H       1  UNL1        0.1495
     10 C         141.1098  137.2162  163.4380 C.3     1  UNL1        0.1759
     11 N         140.7765  138.0460  164.6424 N.am    1  UNL1       -0.2931
     12 C         141.8755  138.6649  165.4543 C.2     1  UNL1        0.2462
     13 O         143.3078  138.4541  165.0618 O.2     1  UNL1       -0.2701
     14 H         139.8364  138.1844  164.9000 H       1  UNL1        0.1502
     15 C         141.5421  139.4947  166.6586 C.ar    1  UNL1        0.0533
     16 C         140.1351  139.5328  167.1771 C.ar    1  UNL1        0.0045
     17 C         139.8019  140.3626  168.3814 C.ar    1  UNL1        0.0001
     18 C         140.8756  141.1542  169.0673 C.ar    1  UNL1        0.0039
     19 C         142.2826  141.1161  168.5488 C.ar    1  UNL1        0.0716
     20 C         142.6159  140.2863  167.3445 C.ar    1  UNL1        0.0084
     21 C         143.3564  141.9077  169.2346 C.3     1  UNL1        0.4186
     22 F         144.4301  142.6993  169.9205 F       1  UNL1       -0.1659
     23 F         143.0706  141.1843  170.5172 F       1  UNL1       -0.1659
     24 F         143.6422  142.6312  167.9521 F       1  UNL1       -0.1659
     25 C         144.5154  140.7420  157.6906 C.3     1  UNL1        0.0897
     26 C         144.2140  142.1575  158.0851 C.3     1  UNL1        0.0897
     27 N         143.8738  142.4829  159.5092 N.3     1  UNL1       -0.2686
     28 C         142.4390  142.6152  159.9261 C.3     1  UNL1        0.0939
     29 C         142.0987  142.9407  161.3504 C.3     1  UNL1        0.1110
     30 N         143.1934  143.1338  162.3576 N.am    1  UNL1       -0.2732
     31 C         142.8531  143.4592  163.7819 C.2     1  UNL1        0.2513
     32 O         143.9477  143.6523  164.7892 O.2     1  UNL1       -0.2698
     33 C         144.6282  143.0014  161.9407 C.3     1  UNL1        0.1110
     34 C         144.9684  142.6760  160.5165 C.3     1  UNL1        0.0939
     35 C         141.4183  143.5915  164.1988 C.ar    1  UNL1        0.0810
     36 C         140.7324  142.4551  164.8971 C.ar    1  UNL1        0.0068
     37 C         139.2976  142.5874  165.3140 C.ar    1  UNL1        0.0003
     38 C         138.5488  143.8563  165.0325 C.ar    1  UNL1        0.0023
     39 C         139.2348  144.9928  164.3341 C.ar    1  UNL1        0.0298
     40 C         140.6696  144.8605  163.9172 C.ar    1  UNL1        0.1445
     41 F         141.3555  145.9969  163.2188 F       1  UNL1       -0.2040
@<TRIPOS>BOND
     1     6     7    2
     2     7    10    1
     3    10    11    1
     4    11    12   am
     5    12    13    2
     6    12    15    1
     7    15    16   ar
     8    16    17   ar
     9    17    18   ar
    10    18    19   ar
    11    19    21    1
    12    21    22    1
    13    21    23    1
    14    21    24    1
    15    19    20   ar
    16     7     8   am
    17     1     8    1
    18     1     2    1
    19     2     3    1
    20     3     4    1
    21     4    25    1
    22    25    26    1
    23    26    27    1
    24    27    28    1
    25    28    29    1
    26    29    30    1
    27    30    31   am
    28    31    32    2
    29    31    35    1
    30    35    36   ar
    31    36    37   ar
    32    37    38   ar
    33    38    39   ar
    34    39    40   ar
    35    40    41    1
    36    30    33    1
    37    33    34    1
    38     4     5    1
    39    20    15   ar
    40     5     1    1
    41    34    27    1
    42    40    35   ar
    43    11    14    1
    44     8     9    1
@<TRIPOS>MOLECULE
*****
 41 44 0 0 0
SMALL
GASTEIGER

@<TRIPOS>ATOM
      1 C         140.3795  143.8289  159.6735 C.3     1  UNL1        0.0889
      2 C         140.6454  144.3853  158.3061 C.3     1  UNL1        0.0383
      3 C         139.6373  143.7989  157.3629 C.3     1  UNL1        0.0739
      4 N         138.7482  142.8800  158.1473 N.3     1  UNL1       -0.2700
      5 C         139.2069  142.8986  159.5753 C.3     1  UNL1        0.0919
      6 O         139.1830  145.6202  161.7615 O.2     1  UNL1       -0.2733
      7 C         140.5524  145.0426  161.9641 C.2     1  UNL1        0.2425
      8 N         141.1507  144.1470  160.9202 N.am    1  UNL1       -0.3032
      9 H         142.0495  143.7679  161.0532 H       1  UNL1        0.1495
     10 C         141.3236  145.3606  163.2107 C.3     1  UNL1        0.1759
     11 N         141.2243  144.4582  164.4049 N.am    1  UNL1       -0.2931
     12 C         141.9732  143.1588  164.4274 C.2     1  UNL1        0.2462
     13 O         142.8216  142.7618  163.2558 O.2     1  UNL1       -0.2701
     14 H         140.6675  144.7188  165.1738 H       1  UNL1        0.1502
     15 C         141.8739  142.2564  165.6215 C.ar    1  UNL1        0.0533
     16 C         142.5910  140.9390  165.6277 C.ar    1  UNL1        0.0045
     17 C         142.4916  140.0367  166.8218 C.ar    1  UNL1        0.0001
     18 C         141.6752  140.4518  168.0097 C.ar    1  UNL1        0.0039
     19 C         140.9581  141.7693  168.0035 C.ar    1  UNL1        0.0716
     20 C         141.0575  142.6716  166.8094 C.ar    1  UNL1        0.0084
     21 C         140.1417  142.1844  169.1914 C.3     1  UNL1        0.4186
     22 F         139.3253  142.5996  170.3793 F       1  UNL1       -0.1659
     23 F         140.9034  143.4746  169.2640 F       1  UNL1       -0.1659
     24 F         139.3800  140.8943  169.1188 F       1  UNL1       -0.1659
     25 C         137.6017  142.0826  157.5998 C.3     1  UNL1        0.0897
     26 C         137.5790  140.5918  157.7641 C.3     1  UNL1        0.0897
     27 N         138.1693  139.9634  158.9915 N.3     1  UNL1       -0.2686
     28 C         137.5262  140.1815  160.3290 C.3     1  UNL1        0.0939
     29 C         138.1166  139.5531  161.5565 C.3     1  UNL1        0.1110
     30 N         139.3501  138.7067  161.4463 N.am    1  UNL1       -0.2732
     31 C         139.9405  138.0783  162.6738 C.2     1  UNL1        0.2513
     32 O         141.1739  137.2318  162.5638 O.2     1  UNL1       -0.2698
     33 C         139.9932  138.4886  160.1088 C.3     1  UNL1        0.1110
     34 C         139.4028  139.1170  158.8814 C.3     1  UNL1        0.0939
     35 C         139.2973  138.2964  164.0113 C.ar    1  UNL1        0.0810
     36 C         138.7425  137.1311  164.7756 C.ar    1  UNL1        0.0068
     37 C         138.0994  137.3492  166.1131 C.ar    1  UNL1        0.0003
     38 C         138.0112  138.7326  166.6862 C.ar    1  UNL1        0.0023
     39 C         138.5660  139.8979  165.9218 C.ar    1  UNL1        0.0298
     40 C         139.2091  139.6798  164.5843 C.ar    1  UNL1        0.1445
     41 F         139.7639  140.8450  163.8200 F       1  UNL1       -0.2040
@<TRIPOS>BOND
     1     6     7    2
     2     7    10    1
     3    10    11    1
     4    11    12   am
     5    12    13    2
     6    12    15    1
     7    15    16   ar
     8    16    17   ar
     9    17    18   ar
    10    18    19   ar
    11    19    21    1
    12    21    22    1
    13    21    23    1
    14    21    24    1
    15    19    20   ar
    16     7     8   am
    17     1     8    1
    18     1     2    1
    19     2     3    1
    20     3     4    1
    21     4    25    1
    22    25    26    1
    23    26    27    1
    24    27    28    1
    25    28    29    1
    26    29    30    1
    27    30    31   am
    28    31    32    2
    29    31    35    1
    30    35    36   ar
    31    36    37   ar
    32    37    38   ar
    33    38    39   ar
    34    39    40   ar
    35    40    41    1
    36    30    33    1
    37    33    34    1
    38     4     5    1
    39    20    15   ar
    40     5     1    1
    41    34    27    1
    42    40    35   ar
    43    11    14    1
    44     8     9    1
@<TRIPOS>MOLECULE
*****
 41 44 0 0 0
SMALL
GASTEIGER

@<TRIPOS>ATOM
      1 C         142.8803  138.0993  160.1203 C.3     1  UNL1        0.0889
      2 C         142.3083  137.6740  158.8006 C.3     1  UNL1        0.0383
      3 C         142.8512  138.5893  157.7435 C.3     1  UNL1        0.0739
      4 N         143.7587  139.5804  158.4099 N.3     1  UNL1       -0.2700
      5 C         143.7767  139.2776  159.8789 C.3     1  UNL1        0.0919
      6 O         141.1137  139.4801  162.1135 O.2     1  UNL1       -0.2733
      7 C         141.7212  138.1493  162.4450 C.2     1  UNL1        0.2425
      8 N         142.6044  137.4589  161.4484 N.am    1  UNL1       -0.3032
      9 H         143.0031  136.5854  161.6660 H       1  UNL1        0.1495
     10 C         141.4453  137.5088  163.7730 C.3     1  UNL1        0.1759
     11 N         141.1302  138.3618  164.9660 N.am    1  UNL1       -0.2931
     12 C         142.2066  139.1929  165.5991 C.2     1  UNL1        0.2462
     13 O         143.5980  139.1711  165.0391 O.2     1  UNL1       -0.2701
     14 H         140.2170  138.3761  165.3336 H       1  UNL1        0.1502
     15 C         141.8915  140.0459  166.7921 C.ar    1  UNL1        0.0533
     16 C         142.8431  141.1257  167.2144 C.ar    1  UNL1        0.0045
     17 C         142.5281  141.9786  168.4074 C.ar    1  UNL1        0.0001
     18 C         141.2614  141.7516  169.1781 C.ar    1  UNL1        0.0039
     19 C         140.3098  140.6718  168.7558 C.ar    1  UNL1        0.0716
     20 C         140.6248  139.8189  167.5628 C.ar    1  UNL1        0.0084
     21 C         139.0431  140.4449  169.5265 C.3     1  UNL1        0.4186
     22 F         137.7764  140.2180  170.2972 F       1  UNL1       -0.1659
     23 F         139.4750  141.4658  170.5371 F       1  UNL1       -0.1659
     24 F         138.6111  139.4240  168.5160 F       1  UNL1       -0.1659
     25 C         144.5154  140.6811  157.7273 C.3     1  UNL1        0.0897
     26 C         144.2865  142.1085  158.1272 C.3     1  UNL1        0.0897
     27 N         143.8671  142.4365  159.5295 N.3     1  UNL1       -0.2686
     28 C         142.4114  142.5734  159.8644 C.3     1  UNL1        0.0939
     29 C         141.9920  142.9014  161.2668 C.3     1  UNL1        0.1110
     30 N         143.0285  143.0925  162.3342 N.am    1  UNL1       -0.2732
     31 C         142.6091  143.4204  163.7366 C.2     1  UNL1        0.2513
     32 O         143.6455  143.6115  164.8040 O.2     1  UNL1       -0.2698
     33 C         144.4842  142.9556  161.9993 C.3     1  UNL1        0.1110
     34 C         144.9035  142.6276  160.5969 C.3     1  UNL1        0.0939
     35 C         141.1534  143.5573  164.0715 C.ar    1  UNL1        0.0810
     36 C         140.4274  142.4261  164.7371 C.ar    1  UNL1        0.0068
     37 C         138.9716  142.5630  165.0719 C.ar    1  UNL1        0.0003
     38 C         138.2420  143.8312  164.7412 C.ar    1  UNL1        0.0023
     39 C         138.9681  144.9624  164.0755 C.ar    1  UNL1        0.0298
     40 C         140.4238  144.8255  163.7406 C.ar    1  UNL1        0.1445
     41 F         141.1499  145.9567  163.0750 F       1  UNL1       -0.2040
@<TRIPOS>BOND
     1     6     7    2
     2     7    10    1
     3    10    11    1
     4    11    12   am
     5    12    13    2
     6    12    15    1
     7    15    16   ar
     8    16    17   ar
     9    17    18   ar
    10    18    19   ar
    11    19    21    1
    12    21    22    1
    13    21    23    1
    14    21    24    1
    15    19    20   ar
    16     7     8   am
    17     1     8    1
    18     1     2    1
    19     2     3    1
    20     3     4    1
    21     4    25    1
    22    25    26    1
    23    26    27    1
    24    27    28    1
    25    28    29    1
    26    29    30    1
    27    30    31   am
    28    31    32    2
    29    31    35    1
    30    35    36   ar
    31    36    37   ar
    32    37    38   ar
    33    38    39   ar
    34    39    40   ar
    35    40    41    1
    36    30    33    1
    37    33    34    1
    38     4     5    1
    39    20    15   ar
    40     5     1    1
    41    34    27    1
    42    40    35   ar
    43    11    14    1
    44     8     9    1
@<TRIPOS>MOLECULE
*****
 41 44 0 0 0
SMALL
GASTEIGER

@<TRIPOS>ATOM
      1 C         143.7042  140.4627  158.0938 C.3     1  UNL1        0.0889
      2 C         143.9736  140.2726  156.6305 C.3     1  UNL1        0.0383
      3 C         143.5873  141.5360  155.9201 C.3     1  UNL1        0.0739
      4 N         143.0792  142.5070  156.9444 N.3     1  UNL1       -0.2700
      5 C         143.1515  141.8436  158.2878 C.3     1  UNL1        0.0919
      6 O         141.5992  138.4237  158.7349 O.2     1  UNL1       -0.2733
      7 C         142.8928  138.4303  159.4941 C.2     1  UNL1        0.2425
      8 N         143.9453  139.4498  159.1736 N.am    1  UNL1       -0.3032
      9 H         144.7944  139.4541  159.6719 H       1  UNL1        0.1495
     10 C         143.1339  137.4174  160.5739 C.3     1  UNL1        0.1759
     11 N         142.5763  137.6395  161.9486 N.am    1  UNL1       -0.2931
     12 C         143.1363  138.7254  162.8187 C.2     1  UNL1        0.2462
     13 O         144.2539  139.5894  162.3141 O.2     1  UNL1       -0.2701
     14 H         141.8428  137.0724  162.2798 H       1  UNL1        0.1502
     15 C         142.5787  138.9475  164.1934 C.ar    1  UNL1        0.0533
     16 C         143.4973  139.2867  165.3296 C.ar    1  UNL1        0.0045
     17 C         142.9397  139.5087  166.7043 C.ar    1  UNL1        0.0001
     18 C         141.4634  139.3915  166.9427 C.ar    1  UNL1        0.0039
     19 C         140.5448  139.0523  165.8066 C.ar    1  UNL1        0.0716
     20 C         141.1024  138.8303  164.4319 C.ar    1  UNL1        0.0084
     21 C         139.0685  138.9351  166.0450 C.3     1  UNL1        0.4186
     22 F         137.5922  138.8179  166.2835 F       1  UNL1       -0.1659
     23 F         139.1007  140.1925  166.8623 F       1  UNL1       -0.1659
     24 F         139.0363  137.6777  165.2278 F       1  UNL1       -0.1659
     25 C         142.5855  143.8971  156.6729 C.3     1  UNL1        0.0897
     26 C         141.1443  144.2404  156.9076 C.3     1  UNL1        0.0897
     27 N         140.4557  143.7731  158.1556 N.3     1  UNL1       -0.2686
     28 C         140.8769  144.3112  159.4909 C.3     1  UNL1        0.0939
     29 C         140.1883  143.8439  160.7389 C.3     1  UNL1        0.1110
     30 N         139.0784  142.8387  160.6515 N.am    1  UNL1       -0.2732
     31 C         138.3898  142.3715  161.8996 C.2     1  UNL1        0.2513
     32 O         137.2798  141.3662  161.8123 O.2     1  UNL1       -0.2698
     33 C         138.6571  142.3007  159.3162 C.3     1  UNL1        0.1110
     34 C         139.3457  142.7679  158.0682 C.3     1  UNL1        0.0939
     35 C         138.8110  142.9095  163.2349 C.ar    1  UNL1        0.0810
     36 C         139.8941  142.2225  164.0125 C.ar    1  UNL1        0.0068
     37 C         140.3154  142.7605  165.3478 C.ar    1  UNL1        0.0003
     38 C         139.6536  143.9856  165.9054 C.ar    1  UNL1        0.0023
     39 C         138.5704  144.6727  165.1278 C.ar    1  UNL1        0.0298
     40 C         138.1491  144.1347  163.7925 C.ar    1  UNL1        0.1445
     41 F         137.0660  144.8217  163.0149 F       1  UNL1       -0.2040
@<TRIPOS>BOND
     1     6     7    2
     2     7    10    1
     3    10    11    1
     4    11    12   am
     5    12    13    2
     6    12    15    1
     7    15    16   ar
     8    16    17   ar
     9    17    18   ar
    10    18    19   ar
    11    19    21    1
    12    21    22    1
    13    21    23    1
    14    21    24    1
    15    19    20   ar
    16     7     8   am
    17     1     8    1
    18     1     2    1
    19     2     3    1
    20     3     4    1
    21     4    25    1
    22    25    26    1
    23    26    27    1
    24    27    28    1
    25    28    29    1
    26    29    30    1
    27    30    31   am
    28    31    32    2
    29    31    35    1
    30    35    36   ar
    31    36    37   ar
    32    37    38   ar
    33    38    39   ar
    34    39    40   ar
    35    40    41    1
    36    30    33    1
    37    33    34    1
    38     4     5    1
    39    20    15   ar
    40     5     1    1
    41    34    27    1
    42    40    35   ar
    43    11    14    1
    44     8     9    1
@<TRIPOS>MOLECULE
*****
 41 44 0 0 0
SMALL
GASTEIGER

@<TRIPOS>ATOM
      1 C         141.0467  145.0705  159.5158 C.3     1  UNL1        0.0889
      2 C         141.6162  145.6181  158.2407 C.3     1  UNL1        0.0383
      3 C         140.8532  145.0182  157.0971 C.3     1  UNL1        0.0739
      4 N         139.8121  144.0998  157.6654 N.3     1  UNL1       -0.2700
      5 C         139.9318  144.1322  159.1602 C.3     1  UNL1        0.0919
      6 O         142.5532  143.0332  161.1221 O.2     1  UNL1       -0.2733
      7 C         142.2640  144.3843  161.7061 C.2     1  UNL1        0.2425
      8 N         141.5108  145.4029  160.9030 N.am    1  UNL1       -0.3032
      9 H         141.3210  146.2896  161.2863 H       1  UNL1        0.1495
     10 C         142.7280  144.7167  163.0933 C.3     1  UNL1        0.1759
     11 N         142.6832  143.6727  164.1695 N.am    1  UNL1       -0.2931
     12 C         141.4003  143.4006  164.8975 C.2     1  UNL1        0.2462
     13 O         140.1621  144.1724  164.5493 O.2     1  UNL1       -0.2701
     14 H         143.4958  143.1661  164.3980 H       1  UNL1        0.1502
     15 C         141.3555  142.3566  165.9737 C.ar    1  UNL1        0.0533
     16 C         140.4714  142.5500  167.1699 C.ar    1  UNL1        0.0045
     17 C         140.4266  141.5061  168.2460 C.ar    1  UNL1        0.0001
     18 C         141.2660  140.2687  168.1260 C.ar    1  UNL1        0.0039
     19 C         142.1501  140.0753  166.9298 C.ar    1  UNL1        0.0716
     20 C         142.1948  141.1193  165.8537 C.ar    1  UNL1        0.0084
     21 C         142.9894  138.8379  166.8097 C.3     1  UNL1        0.4186
     22 F         143.8288  137.6006  166.6897 F       1  UNL1       -0.1659
     23 F         142.9694  138.9693  165.3156 F       1  UNL1       -0.1659
     24 F         143.0095  138.7066  168.3039 F       1  UNL1       -0.1659
     25 C         138.8248  143.2911  156.8772 C.3     1  UNL1        0.0897
     26 C         138.7096  141.8138  157.1100 C.3     1  UNL1        0.0897
     27 N         139.2668  141.2064  158.3632 N.3     1  UNL1       -0.2686
     28 C         138.3996  141.0679  159.5793 C.3     1  UNL1        0.0939
     29 C         138.9568  140.4604  160.8326 C.3     1  UNL1        0.1110
     30 N         140.3811  139.9915  160.8697 N.am    1  UNL1       -0.2732
     31 C         140.9383  139.3841  162.1230 C.2     1  UNL1        0.2513
     32 O         142.3627  138.9152  162.1601 O.2     1  UNL1       -0.2698
     33 C         141.2483  140.1300  159.6536 C.3     1  UNL1        0.1110
     34 C         140.6911  140.7374  158.4004 C.3     1  UNL1        0.0939
     35 C         140.0711  139.2456  163.3390 C.ar    1  UNL1        0.0810
     36 C         139.2622  140.4135  163.8203 C.ar    1  UNL1        0.0068
     37 C         138.3951  140.2750  165.0363 C.ar    1  UNL1        0.0003
     38 C         138.3369  138.9686  165.7711 C.ar    1  UNL1        0.0023
     39 C         139.1458  137.8007  165.2899 C.ar    1  UNL1        0.0298
     40 C         140.0130  137.9392  164.0738 C.ar    1  UNL1        0.1445
     41 F         140.8219  136.7713  163.5926 F       1  UNL1       -0.2040
@<TRIPOS>BOND
     1     6     7    2
     2     7    10    1
     3    10    11    1
     4    11    12   am
     5    12    13    2
     6    12    15    1
     7    15    16   ar
     8    16    17   ar
     9    17    18   ar
    10    18    19   ar
    11    19    21    1
    12    21    22    1
    13    21    23    1
    14    21    24    1
    15    19    20   ar
    16     7     8   am
    17     1     8    1
    18     1     2    1
    19     2     3    1
    20     3     4    1
    21     4    25    1
    22    25    26    1
    23    26    27    1
    24    27    28    1
    25    28    29    1
    26    29    30    1
    27    30    31   am
    28    31    32    2
    29    31    35    1
    30    35    36   ar
    31    36    37   ar
    32    37    38   ar
    33    38    39   ar
    34    39    40   ar
    35    40    41    1
    36    30    33    1
    37    33    34    1
    38     4     5    1
    39    20    15   ar
    40     5     1    1
    41    34    27    1
    42    40    35   ar
    43    11    14    1
    44     8     9    1
@<TRIPOS>MOLECULE
*****
 41 44 0 0 0
SMALL
GASTEIGER

@<TRIPOS>ATOM
      1 C         142.9576  138.0805  159.8785 C.3     1  UNL1        0.0889
      2 C         142.5851  137.5108  158.5418 C.3     1  UNL1        0.0383
      3 C         143.0659  138.4589  157.4836 C.3     1  UNL1        0.0739
      4 N         143.7355  139.6147  158.1662 N.3     1  UNL1       -0.2700
      5 C         143.6686  139.3807  159.6463 C.3     1  UNL1        0.0919
      6 O         140.7679  139.1847  161.6064 O.2     1  UNL1       -0.2733
      7 C         141.5749  138.0111  162.0769 C.2     1  UNL1        0.2425
      8 N         142.6697  137.4590  161.2130 N.am    1  UNL1       -0.3032
      9 H         143.1994  136.6887  161.5219 H       1  UNL1        0.1495
     10 C         141.2870  137.3897  163.4114 C.3     1  UNL1        0.1759
     11 N         140.9874  138.2606  164.5954 N.am    1  UNL1       -0.2931
     12 C         142.0538  139.1518  165.1599 C.2     1  UNL1        0.2462
     13 O         143.4197  139.1721  164.5404 O.2     1  UNL1       -0.2701
     14 H         140.0909  138.2473  165.0020 H       1  UNL1        0.1502
     15 C         141.7542  140.0227  166.3439 C.ar    1  UNL1        0.0533
     16 C         142.6330  141.1987  166.6514 C.ar    1  UNL1        0.0045
     17 C         142.3334  142.0696  167.8354 C.ar    1  UNL1        0.0001
     18 C         141.1550  141.7644  168.7118 C.ar    1  UNL1        0.0039
     19 C         140.2762  140.5884  168.4043 C.ar    1  UNL1        0.0716
     20 C         140.5758  139.7175  167.2204 C.ar    1  UNL1        0.0084
     21 C         139.0977  140.2832  169.2808 C.3     1  UNL1        0.4186
     22 F         137.9193  139.9781  170.1573 F       1  UNL1       -0.1659
     23 F         138.4934  139.4604  168.1818 F       1  UNL1       -0.1659
     24 F         139.7021  141.1060  170.3798 F       1  UNL1       -0.1659
     25 C         144.3621  140.7967  157.4879 C.3     1  UNL1        0.0897
     26 C         143.7894  142.1682  157.6905 C.3     1  UNL1        0.0897
     27 N         142.5925  142.3581  158.5744 N.3     1  UNL1       -0.2686
     28 C         142.7769  142.6514  160.0338 C.3     1  UNL1        0.0939
     29 C         141.5799  142.8413  160.9178 C.3     1  UNL1        0.1110
     30 N         140.1986  142.7379  160.3421 N.am    1  UNL1       -0.2732
     31 C         139.0016  142.9278  161.2260 C.2     1  UNL1        0.2513
     32 O         137.6203  142.8244  160.6505 O.2     1  UNL1       -0.2698
     33 C         140.0142  142.4446  158.8827 C.3     1  UNL1        0.1110
     34 C         141.2112  142.2547  157.9988 C.3     1  UNL1        0.0939
     35 C         139.1860  143.2211  162.6855 C.ar    1  UNL1        0.0810
     36 C         139.4561  144.6247  163.1401 C.ar    1  UNL1        0.0068
     37 C         139.6404  144.9180  164.5995 C.ar    1  UNL1        0.0003
     38 C         139.5548  143.8076  165.6043 C.ar    1  UNL1        0.0023
     39 C         139.2847  142.4038  165.1497 C.ar    1  UNL1        0.0298
     40 C         139.1003  142.1106  163.6902 C.ar    1  UNL1        0.1445
     41 F         138.8303  140.7069  163.2356 F       1  UNL1       -0.2040
@<TRIPOS>BOND
     1     6     7    2
     2     7    10    1
     3    10    11    1
     4    11    12   am
     5    12    13    2
     6    12    15    1
     7    15    16   ar
     8    16    17   ar
     9    17    18   ar
    10    18    19   ar
    11    19    21    1
    12    21    22    1
    13    21    23    1
    14    21    24    1
    15    19    20   ar
    16     7     8   am
    17     1     8    1
    18     1     2    1
    19     2     3    1
    20     3     4    1
    21     4    25    1
    22    25    26    1
    23    26    27    1
    24    27    28    1
    25    28    29    1
    26    29    30    1
    27    30    31   am
    28    31    32    2
    29    31    35    1
    30    35    36   ar
    31    36    37   ar
    32    37    38   ar
    33    38    39   ar
    34    39    40   ar
    35    40    41    1
    36    30    33    1
    37    33    34    1
    38     4     5    1
    39    20    15   ar
    40     5     1    1
    41    34    27    1
    42    40    35   ar
    43    11    14    1
    44     8     9    1
@<TRIPOS>MOLECULE
*****
 41 44 0 0 0
SMALL
GASTEIGER

@<TRIPOS>ATOM
      1 C         138.1370  140.9439  157.9486 C.3     1  UNL1        0.0889
      2 C         138.4885  140.3886  156.6002 C.3     1  UNL1        0.0383
      3 C         139.0900  141.4952  155.7856 C.3     1  UNL1        0.0739
      4 N         139.1103  142.7345  156.6306 N.3     1  UNL1       -0.2700
      5 C         138.5213  142.3937  157.9673 C.3     1  UNL1        0.0919
      6 O         139.8511  139.8706  160.1645 O.2     1  UNL1       -0.2733
      7 C         138.3681  139.6463  160.1876 C.2     1  UNL1        0.2425
      8 N         137.5111  140.1829  159.0797 N.am    1  UNL1       -0.3032
      9 H         136.5378  140.0357  159.0949 H       1  UNL1        0.1495
     10 C         137.7422  138.8855  161.3186 C.3     1  UNL1        0.1759
     11 N         137.9585  139.3329  162.7340 N.am    1  UNL1       -0.2931
     12 C         138.9410  138.6103  163.6072 C.2     1  UNL1        0.2462
     13 O         139.7073  137.4403  163.0651 O.2     1  UNL1       -0.2701
     14 H         137.4555  140.1008  163.0898 H       1  UNL1        0.1502
     15 C         139.1572  139.0577  165.0225 C.ar    1  UNL1        0.0533
     16 C         138.1265  138.7570  166.0699 C.ar    1  UNL1        0.0045
     17 C         138.3427  139.2044  167.4852 C.ar    1  UNL1        0.0001
     18 C         139.5898  139.9525  167.8530 C.ar    1  UNL1        0.0039
     19 C         140.6205  140.2532  166.8056 C.ar    1  UNL1        0.0716
     20 C         140.4043  139.8058  165.3904 C.ar    1  UNL1        0.0084
     21 C         141.8675  141.0012  167.1735 C.3     1  UNL1        0.4186
     22 F         143.1146  141.7493  167.5414 F       1  UNL1       -0.1659
     23 F         141.3879  142.1865  166.3892 F       1  UNL1       -0.1659
     24 F         142.3472  139.8160  167.9577 F       1  UNL1       -0.1659
     25 C         139.6285  144.0785  156.2122 C.3     1  UNL1        0.0897
     26 C         140.8751  144.6297  156.8384 C.3     1  UNL1        0.0897
     27 N         141.0580  144.5671  158.3258 N.3     1  UNL1       -0.2686
     28 C         142.0526  143.6142  158.9197 C.3     1  UNL1        0.0939
     29 C         142.2356  143.5515  160.4072 C.3     1  UNL1        0.1110
     30 N         141.4238  144.4418  161.3008 N.am    1  UNL1       -0.2732
     31 C         141.6068  144.3791  162.7883 C.2     1  UNL1        0.2513
     32 O         140.7950  145.2694  163.6820 O.2     1  UNL1       -0.2698
     33 C         140.4292  145.3947  160.7069 C.3     1  UNL1        0.1110
     34 C         140.2463  145.4573  159.2195 C.3     1  UNL1        0.0939
     35 C         142.6014  143.4262  163.3822 C.ar    1  UNL1        0.0810
     36 C         142.4413  141.9493  163.1749 C.ar    1  UNL1        0.0068
     37 C         143.4359  140.9964  163.7687 C.ar    1  UNL1        0.0003
     38 C         144.5907  141.5205  164.5699 C.ar    1  UNL1        0.0023
     39 C         144.7508  142.9975  164.7772 C.ar    1  UNL1        0.0298
     40 C         143.7561  143.9504  164.1834 C.ar    1  UNL1        0.1445
     41 F         143.9163  145.4272  164.3907 F       1  UNL1       -0.2040
@<TRIPOS>BOND
     1     6     7    2
     2     7    10    1
     3    10    11    1
     4    11    12   am
     5    12    13    2
     6    12    15    1
     7    15    16   ar
     8    16    17   ar
     9    17    18   ar
    10    18    19   ar
    11    19    21    1
    12    21    22    1
    13    21    23    1
    14    21    24    1
    15    19    20   ar
    16     7     8   am
    17     1     8    1
    18     1     2    1
    19     2     3    1
    20     3     4    1
    21     4    25    1
    22    25    26    1
    23    26    27    1
    24    27    28    1
    25    28    29    1
    26    29    30    1
    27    30    31   am
    28    31    32    2
    29    31    35    1
    30    35    36   ar
    31    36    37   ar
    32    37    38   ar
    33    38    39   ar
    34    39    40   ar
    35    40    41    1
    36    30    33    1
    37    33    34    1
    38     4     5    1
    39    20    15   ar
    40     5     1    1
    41    34    27    1
    42    40    35   ar
    43    11    14    1
    44     8     9    1
@<TRIPOS>MOLECULE
*****
 41 44 0 0 0
SMALL
GASTEIGER

@<TRIPOS>ATOM
      1 C         141.1730  144.9293  158.6884 C.3     1  UNL1        0.0889
      2 C         140.4410  145.6073  157.5683 C.3     1  UNL1        0.0383
      3 C         140.4442  144.6836  156.3864 C.3     1  UNL1        0.0739
      4 N         141.1781  143.4348  156.7761 N.3     1  UNL1       -0.2700
      5 C         141.6285  143.5866  158.1988 C.3     1  UNL1        0.0919
      6 O         139.2149  144.3812  160.8942 O.2     1  UNL1       -0.2733
      7 C         140.4291  145.2207  161.1606 C.2     1  UNL1        0.2425
      8 N         141.4081  145.4948  160.0578 N.am    1  UNL1       -0.3032
      9 H         142.2050  146.0457  160.2326 H       1  UNL1        0.1495
     10 C         140.6642  145.7861  162.5299 C.3     1  UNL1        0.1759
     11 N         141.2966  144.9378  163.5932 N.am    1  UNL1       -0.2931
     12 C         140.4378  144.1014  164.4948 C.2     1  UNL1        0.2462
     13 O         138.9466  144.1133  164.3331 O.2     1  UNL1       -0.2701
     14 H         142.2754  144.9300  163.6993 H       1  UNL1        0.1502
     15 C         141.0702  143.2531  165.5581 C.ar    1  UNL1        0.0533
     16 C         142.5004  142.8220  165.4216 C.ar    1  UNL1        0.0045
     17 C         143.1328  141.9738  166.4849 C.ar    1  UNL1        0.0001
     18 C         142.3349  141.5566  167.6846 C.ar    1  UNL1        0.0039
     19 C         140.9047  141.9877  167.8211 C.ar    1  UNL1        0.0716
     20 C         140.2724  142.8359  166.7578 C.ar    1  UNL1        0.0084
     21 C         140.1068  141.5705  169.0208 C.3     1  UNL1        0.4186
     22 F         139.3090  141.1533  170.2206 F       1  UNL1       -0.1659
     23 F         139.3430  140.5961  168.1740 F       1  UNL1       -0.1659
     24 F         140.8707  142.5449  169.8676 F       1  UNL1       -0.1659
     25 C         141.4193  142.2433  155.8973 C.3     1  UNL1        0.0897
     26 C         141.7970  140.9259  156.5071 C.3     1  UNL1        0.0897
     27 N         141.0923  140.4401  157.7389 N.3     1  UNL1       -0.2686
     28 C         141.8676  140.1973  158.9998 C.3     1  UNL1        0.0939
     29 C         141.1630  139.7115  160.2318 C.3     1  UNL1        0.1110
     30 N         139.6831  139.4685  160.2026 N.am    1  UNL1       -0.2732
     31 C         138.9784  138.9827  161.4345 C.2     1  UNL1        0.2513
     32 O         137.4985  138.7397  161.4054 O.2     1  UNL1       -0.2698
     33 C         138.9078  139.7113  158.9417 C.3     1  UNL1        0.1110
     34 C         139.6124  140.1971  157.7098 C.3     1  UNL1        0.0939
     35 C         139.7537  138.7399  162.6955 C.ar    1  UNL1        0.0810
     36 C         140.3963  137.4060  162.9357 C.ar    1  UNL1        0.0068
     37 C         141.1716  137.1632  164.1966 C.ar    1  UNL1        0.0003
     38 C         141.3042  138.2543  165.2173 C.ar    1  UNL1        0.0023
     39 C         140.6616  139.5882  164.9771 C.ar    1  UNL1        0.0298
     40 C         139.8863  139.8311  163.7161 C.ar    1  UNL1        0.1445
     41 F         139.2437  141.1649  163.4759 F       1  UNL1       -0.2040
@<TRIPOS>BOND
     1     6     7    2
     2     7    10    1
     3    10    11    1
     4    11    12   am
     5    12    13    2
     6    12    15    1
     7    15    16   ar
     8    16    17   ar
     9    17    18   ar
    10    18    19   ar
    11    19    21    1
    12    21    22    1
    13    21    23    1
    14    21    24    1
    15    19    20   ar
    16     7     8   am
    17     1     8    1
    18     1     2    1
    19     2     3    1
    20     3     4    1
    21     4    25    1
    22    25    26    1
    23    26    27    1
    24    27    28    1
    25    28    29    1
    26    29    30    1
    27    30    31   am
    28    31    32    2
    29    31    35    1
    30    35    36   ar
    31    36    37   ar
    32    37    38   ar
    33    38    39   ar
    34    39    40   ar
    35    40    41    1
    36    30    33    1
    37    33    34    1
    38     4     5    1
    39    20    15   ar
    40     5     1    1
    41    34    27    1
    42    40    35   ar
    43    11    14    1
    44     8     9    1
@<TRIPOS>MOLECULE
*****
 41 44 0 0 0
SMALL
GASTEIGER

@<TRIPOS>ATOM
      1 C         143.6164  140.7246  159.8380 C.3     1  UNL1        0.0889
      2 C         143.7477  141.2289  158.4315 C.3     1  UNL1        0.0383
      3 C         142.8968  140.3654  157.5481 C.3     1  UNL1        0.0739
      4 N         142.2395  139.3275  158.4088 N.3     1  UNL1       -0.2700
      5 C         142.6842  139.5495  159.8240 C.3     1  UNL1        0.0919
      6 O         143.1283  143.5772  160.6281 O.2     1  UNL1       -0.2733
      7 C         144.0535  142.7215  161.4415 C.2     1  UNL1        0.2425
      8 N         144.2976  141.2953  161.0465 N.am    1  UNL1       -0.3032
      9 H         144.9049  140.7336  161.5804 H       1  UNL1        0.1495
     10 C         144.7347  143.2921  162.6500 C.3     1  UNL1        0.1759
     11 N         144.5878  142.6181  163.9820 N.am    1  UNL1       -0.2931
     12 C         143.2275  142.2274  164.4789 C.2     1  UNL1        0.2462
     13 O         142.0141  142.5107  163.6438 O.2     1  UNL1       -0.2701
     14 H         145.3842  142.4322  164.5301 H       1  UNL1        0.1502
     15 C         143.0806  141.5534  165.8109 C.ar    1  UNL1        0.0533
     16 C         142.9152  140.0644  165.8838 C.ar    1  UNL1        0.0045
     17 C         142.7683  139.3905  167.2158 C.ar    1  UNL1        0.0001
     18 C         142.7868  140.2056  168.4749 C.ar    1  UNL1        0.0039
     19 C         142.9522  141.6947  168.4019 C.ar    1  UNL1        0.0716
     20 C         143.0991  142.3686  167.0700 C.ar    1  UNL1        0.0084
     21 C         142.9706  142.5098  169.6610 C.3     1  UNL1        0.4186
     22 F         142.9891  143.3250  170.9200 F       1  UNL1       -0.1659
     23 F         141.4719  142.4705  169.7084 F       1  UNL1       -0.1659
     24 F         144.4694  142.5491  169.6136 F       1  UNL1       -0.1659
     25 C         141.3020  138.2557  157.9370 C.3     1  UNL1        0.0897
     26 C         139.8563  138.2955  158.3349 C.3     1  UNL1        0.0897
     27 N         139.4364  139.0509  159.5609 N.3     1  UNL1       -0.2686
     28 C         139.7685  138.5155  160.9221 C.3     1  UNL1        0.0939
     29 C         139.3485  139.2710  162.1482 C.3     1  UNL1        0.1110
     30 N         138.5966  140.5618  162.0127 N.am    1  UNL1       -0.2732
     31 C         138.1766  141.3172  163.2388 C.2     1  UNL1        0.2513
     32 O         137.4246  142.6081  163.1035 O.2     1  UNL1       -0.2698
     33 C         138.2645  141.0972  160.6515 C.3     1  UNL1        0.1110
     34 C         138.6844  140.3417  159.4255 C.3     1  UNL1        0.0939
     35 C         138.5087  140.7818  164.6001 C.ar    1  UNL1        0.0810
     36 C         138.1124  139.3842  164.9734 C.ar    1  UNL1        0.0068
     37 C         138.4445  138.8488  166.3347 C.ar    1  UNL1        0.0003
     38 C         139.1729  139.7111  167.3226 C.ar    1  UNL1        0.0023
     39 C         139.5692  141.1088  166.9491 C.ar    1  UNL1        0.0298
     40 C         139.2371  141.6442  165.5879 C.ar    1  UNL1        0.1445
     41 F         139.6334  143.0418  165.2145 F       1  UNL1       -0.2040
@<TRIPOS>BOND
     1     6     7    2
     2     7    10    1
     3    10    11    1
     4    11    12   am
     5    12    13    2
     6    12    15    1
     7    15    16   ar
     8    16    17   ar
     9    17    18   ar
    10    18    19   ar
    11    19    21    1
    12    21    22    1
    13    21    23    1
    14    21    24    1
    15    19    20   ar
    16     7     8   am
    17     1     8    1
    18     1     2    1
    19     2     3    1
    20     3     4    1
    21     4    25    1
    22    25    26    1
    23    26    27    1
    24    27    28    1
    25    28    29    1
    26    29    30    1
    27    30    31   am
    28    31    32    2
    29    31    35    1
    30    35    36   ar
    31    36    37   ar
    32    37    38   ar
    33    38    39   ar
    34    39    40   ar
    35    40    41    1
    36    30    33    1
    37    33    34    1
    38     4     5    1
    39    20    15   ar
    40     5     1    1
    41    34    27    1
    42    40    35   ar
    43    11    14    1
    44     8     9    1
