@<TRIPOS>MOLECULE
*****
 34 37 0 0 0
SMALL
GASTEIGER

@<TRIPOS>ATOM
      1 C         142.4488  140.2855  168.2586 C.3     1  UNL1        0.0782
      2 C         142.8024  141.7422  168.3113 C.3     1  UNL1        0.0372
      3 C         143.3485  142.4260  167.0930 C.3     1  UNL1        0.0741
      4 N         143.5410  141.6530  165.8220 N.3     1  UNL1       -0.2688
      5 C         143.1874  140.1962  165.7693 C.3     1  UNL1        0.0741
      6 C         142.6413  139.5124  166.9876 C.3     1  UNL1        0.0372
      7 C         142.7714  138.6665  170.2648 C.3     1  UNL1        0.1148
      8 N         141.9028  139.6017  169.4769 N.am    1  UNL1       -0.2790
      9 C         140.4880  139.8532  169.9073 C.2     1  UNL1        0.2301
     10 O         139.9419  139.1694  171.1256 O.2     1  UNL1       -0.2745
     11 C         139.6193  140.7884  169.1194 C.3     1  UNL1        0.1116
     12 C         139.2872  140.4784  167.6898 C.ar    1  UNL1       -0.0130
     13 C         138.6051  139.1889  167.3409 C.ar    1  UNL1       -0.0022
     14 C         138.2731  138.8790  165.9113 C.ar    1  UNL1        0.0190
     15 C         138.6230  139.8587  164.8307 C.ar    1  UNL1        0.0862
     16 C         139.3051  141.1483  165.1796 C.ar    1  UNL1        0.0190
     17 C         139.6372  141.4581  166.6092 C.ar    1  UNL1       -0.0022
     18 N         138.2909  139.5488  163.4011 N.ar    1  UNL1       -0.1886
     19 C         138.4959  138.2313  162.7140 C.ar    1  UNL1        0.2258
     20 N         138.0272  138.3701  161.2959 N.ar    1  UNL1       -0.1045
     21 N         137.5325  139.7735  161.1066 N.ar    1  UNL1       -0.0222
     22 N         137.6955  140.5019  162.4077 N.ar    1  UNL1       -0.0385
     23 C         144.0871  142.3367  164.6037 C.3     1  UNL1        0.0992
     24 C         143.1771  143.1422  163.7245 C.ar    1  UNL1       -0.0039
     25 C         142.9543  144.5979  164.0092 C.ar    1  UNL1       -0.0028
     26 C         142.0443  145.4035  163.1300 C.ar    1  UNL1        0.0058
     27 C         141.3571  144.7532  161.9660 C.ar    1  UNL1        0.0988
     28 C         141.5799  143.2974  161.6812 C.ar    1  UNL1        0.1437
     29 F         140.8928  142.6472  160.5172 F       1  UNL1       -0.2042
     30 C         142.4899  142.4919  162.5604 C.ar    1  UNL1        0.0267
     31 C         140.4471  145.5587  161.0867 C.3     1  UNL1        0.4207
     32 F         139.5371  146.3642  160.2075 F       1  UNL1       -0.1658
     33 F         139.4225  145.5962  162.1815 F       1  UNL1       -0.1658
     34 F         141.4717  145.5212  159.9919 F       1  UNL1       -0.1658
@<TRIPOS>BOND
     1     7     8    1
     2     8     9   am
     3     9    10    2
     4     9    11    1
     5    11    12    1
     6    12    13   ar
     7    13    14   ar
     8    14    15   ar
     9    15    18    1
    10    18    19   ar
    11    19    20   ar
    12    20    21   ar
    13    21    22   ar
    14    15    16   ar
    15    16    17   ar
    16     8     1    1
    17     1     2    1
    18     2     3    1
    19     3     4    1
    20     4    23    1
    21    23    24    1
    22    24    25   ar
    23    25    26   ar
    24    26    27   ar
    25    27    31    1
    26    31    32    1
    27    31    33    1
    28    31    34    1
    29    27    28   ar
    30    28    29    1
    31    28    30   ar
    32     4     5    1
    33     5     6    1
    34    17    12   ar
    35     6     1    1
    36    22    18   ar
    37    30    24   ar
@<TRIPOS>MOLECULE
*****
 34 37 0 0 0
SMALL
GASTEIGER

@<TRIPOS>ATOM
      1 C         143.5427  141.1694  162.0177 C.3     1  UNL1        0.0782
      2 C         144.8038  141.2233  162.8280 C.3     1  UNL1        0.0372
      3 C         144.7731  141.7600  164.2284 C.3     1  UNL1        0.0741
      4 N         143.4813  142.2428  164.8184 N.3     1  UNL1       -0.2688
      5 C         142.2202  142.1890  164.0080 C.3     1  UNL1        0.0741
      6 C         142.2508  141.6523  162.6077 C.3     1  UNL1        0.0372
      7 C         143.5485  141.5764  159.4517 C.3     1  UNL1        0.1148
      8 N         143.5734  140.6327  160.6173 N.am    1  UNL1       -0.2790
      9 C         143.6289  139.1522  160.3826 C.2     1  UNL1        0.2301
     10 O         143.6596  138.6155  158.9822 O.2     1  UNL1       -0.2745
     11 C         143.6538  138.2084  161.5482 C.3     1  UNL1        0.1116
     12 C         142.5149  138.1920  162.5243 C.ar    1  UNL1       -0.0130
     13 C         141.1102  137.9994  162.0348 C.ar    1  UNL1       -0.0022
     14 C         139.9714  137.9829  163.0109 C.ar    1  UNL1        0.0190
     15 C         140.2374  138.1591  164.4766 C.ar    1  UNL1        0.0862
     16 C         141.6420  138.3517  164.9662 C.ar    1  UNL1        0.0190
     17 C         142.7808  138.3681  163.9900 C.ar    1  UNL1       -0.0022
     18 N         139.0985  138.1426  165.4528 N.ar    1  UNL1       -0.1886
     19 C         138.4644  139.3444  166.0880 C.ar    1  UNL1        0.2258
     20 N         137.3678  138.8661  166.9929 N.ar    1  UNL1       -0.1045
     21 N         137.3242  137.3686  166.9168 N.ar    1  UNL1       -0.0222
     22 N         138.3938  136.9215  165.9650 N.ar    1  UNL1       -0.0385
     23 C         143.4506  142.7795  166.2187 C.3     1  UNL1        0.0992
     24 C         142.6196  142.0980  167.2651 C.ar    1  UNL1       -0.0039
     25 C         141.3818  142.7629  167.7901 C.ar    1  UNL1       -0.0028
     26 C         140.5506  142.0814  168.8365 C.ar    1  UNL1        0.0058
     27 C         140.9575  140.7351  169.3578 C.ar    1  UNL1        0.0988
     28 C         142.1954  140.0702  168.8328 C.ar    1  UNL1        0.1437
     29 F         142.6022  138.7238  169.3542 F       1  UNL1       -0.2042
     30 C         143.0264  140.7517  167.7865 C.ar    1  UNL1        0.0267
     31 C         140.1264  140.0536  170.4042 C.3     1  UNL1        0.4207
     32 F         139.2954  139.3721  171.4505 F       1  UNL1       -0.1658
     33 F         141.2344  140.2308  171.3996 F       1  UNL1       -0.1658
     34 F         139.0185  139.8763  169.4088 F       1  UNL1       -0.1658
@<TRIPOS>BOND
     1     7     8    1
     2     8     9   am
     3     9    10    2
     4     9    11    1
     5    11    12    1
     6    12    13   ar
     7    13    14   ar
     8    14    15   ar
     9    15    18    1
    10    18    19   ar
    11    19    20   ar
    12    20    21   ar
    13    21    22   ar
    14    15    16   ar
    15    16    17   ar
    16     8     1    1
    17     1     2    1
    18     2     3    1
    19     3     4    1
    20     4    23    1
    21    23    24    1
    22    24    25   ar
    23    25    26   ar
    24    26    27   ar
    25    27    31    1
    26    31    32    1
    27    31    33    1
    28    31    34    1
    29    27    28   ar
    30    28    29    1
    31    28    30   ar
    32     4     5    1
    33     5     6    1
    34    17    12   ar
    35     6     1    1
    36    22    18   ar
    37    30    24   ar
@<TRIPOS>MOLECULE
*****
 34 37 0 0 0
SMALL
GASTEIGER

@<TRIPOS>ATOM
      1 C         142.5643  140.6760  161.3285 C.3     1  UNL1        0.0782
      2 C         141.5898  141.4207  162.1919 C.3     1  UNL1        0.0372
      3 C         142.0044  141.8961  163.5528 C.3     1  UNL1        0.0741
      4 N         143.3936  141.6268  164.0503 N.3     1  UNL1       -0.2688
      5 C         144.3683  140.8821  163.1868 C.3     1  UNL1        0.0741
      6 C         143.9536  140.4067  161.8259 C.3     1  UNL1        0.0372
      7 C         141.9493  141.1886  158.8568 C.3     1  UNL1        0.1148
      8 N         142.1497  140.2006  159.9675 N.am    1  UNL1       -0.2790
      9 C         141.9355  138.7372  159.7174 C.2     1  UNL1        0.2301
     10 O         141.5208  138.2618  158.3565 O.2     1  UNL1       -0.2745
     11 C         142.1359  137.7492  160.8281 C.3     1  UNL1        0.1116
     12 C         141.2511  137.7919  162.0386 C.ar    1  UNL1       -0.0130
     13 C         141.8473  137.6584  163.4085 C.ar    1  UNL1       -0.0022
     14 C         140.9624  137.7011  164.6189 C.ar    1  UNL1        0.0190
     15 C         139.4814  137.8772  164.4594 C.ar    1  UNL1        0.0862
     16 C         138.8851  138.0106  163.0895 C.ar    1  UNL1        0.0190
     17 C         139.7700  137.9680  161.8791 C.ar    1  UNL1       -0.0022
     18 N         138.5965  137.9198  165.6700 N.ar    1  UNL1       -0.1886
     19 C         138.3710  139.1092  166.5558 C.ar    1  UNL1        0.2258
     20 N         137.4170  138.7051  167.6404 N.ar    1  UNL1       -0.1045
     21 N         137.0528  137.2660  167.4250 N.ar    1  UNL1       -0.0222
     22 N         137.7818  136.7807  166.2072 N.ar    1  UNL1       -0.0385
     23 C         143.8083  142.1022  165.4112 C.3     1  UNL1        0.0992
     24 C         143.0589  141.6428  166.6266 C.ar    1  UNL1       -0.0039
     25 C         142.7565  140.1857  166.8150 C.ar    1  UNL1       -0.0028
     26 C         142.0072  139.7262  168.0305 C.ar    1  UNL1        0.0058
     27 C         141.5602  140.7239  169.0576 C.ar    1  UNL1        0.0988
     28 C         141.8626  142.1810  168.8692 C.ar    1  UNL1        0.1437
     29 F         141.4156  143.1786  169.8963 F       1  UNL1       -0.2042
     30 C         142.6119  142.6404  167.6537 C.ar    1  UNL1        0.0267
     31 C         140.8108  140.2645  170.2730 C.3     1  UNL1        0.4207
     32 F         140.0615  139.8051  171.4885 F       1  UNL1       -0.1658
     33 F         139.5372  140.2463  169.4809 F       1  UNL1       -0.1658
     34 F         142.0845  140.2826  171.0651 F       1  UNL1       -0.1658
@<TRIPOS>BOND
     1     7     8    1
     2     8     9   am
     3     9    10    2
     4     9    11    1
     5    11    12    1
     6    12    13   ar
     7    13    14   ar
     8    14    15   ar
     9    15    18    1
    10    18    19   ar
    11    19    20   ar
    12    20    21   ar
    13    21    22   ar
    14    15    16   ar
    15    16    17   ar
    16     8     1    1
    17     1     2    1
    18     2     3    1
    19     3     4    1
    20     4    23    1
    21    23    24    1
    22    24    25   ar
    23    25    26   ar
    24    26    27   ar
    25    27    31    1
    26    31    32    1
    27    31    33    1
    28    31    34    1
    29    27    28   ar
    30    28    29    1
    31    28    30   ar
    32     4     5    1
    33     5     6    1
    34    17    12   ar
    35     6     1    1
    36    22    18   ar
    37    30    24   ar
@<TRIPOS>MOLECULE
*****
 34 37 0 0 0
SMALL
GASTEIGER

@<TRIPOS>ATOM
      1 C         142.6293  140.2671  159.1930 C.3     1  UNL1        0.0782
      2 C         142.8563  139.1024  160.1106 C.3     1  UNL1        0.0372
      3 C         141.6921  138.4456  160.7911 C.3     1  UNL1        0.0741
      4 N         140.3007  138.9535  160.5541 N.3     1  UNL1       -0.2688
      5 C         140.0736  140.1182  159.6365 C.3     1  UNL1        0.0741
      6 C         141.2379  140.7750  158.9560 C.3     1  UNL1        0.0372
      7 C         144.4119  140.2875  157.3031 C.3     1  UNL1        0.1148
      8 N         143.7935  140.9239  158.5125 N.am    1  UNL1       -0.2790
      9 C         144.3394  142.2171  159.0414 C.2     1  UNL1        0.2301
     10 O         145.5037  142.8739  158.3609 O.2     1  UNL1       -0.2745
     11 C         143.7211  142.8534  160.2508 C.3     1  UNL1        0.1116
     12 C         143.6587  142.0992  161.5460 C.ar    1  UNL1       -0.0130
     13 C         144.8869  141.4246  162.0810 C.ar    1  UNL1       -0.0022
     14 C         144.8245  140.6704  163.3761 C.ar    1  UNL1        0.0190
     15 C         143.5338  140.5910  164.1362 C.ar    1  UNL1        0.0862
     16 C         142.3055  141.2656  163.6012 C.ar    1  UNL1        0.0190
     17 C         142.3680  142.0197  162.3061 C.ar    1  UNL1       -0.0022
     18 N         143.4714  139.8368  165.4314 N.ar    1  UNL1       -0.1886
     19 C         142.7884  140.2944  166.6861 C.ar    1  UNL1        0.2258
     20 N         142.9759  139.2331  167.7294 N.ar    1  UNL1       -0.1045
     21 N         143.7747  138.1195  167.1194 N.ar    1  UNL1       -0.0222
     22 N         144.0809  138.4927  165.6992 N.ar    1  UNL1       -0.0385
     23 C         139.1365  138.2967  161.2346 C.3     1  UNL1        0.0992
     24 C         138.9095  138.5069  162.7023 C.ar    1  UNL1       -0.0039
     25 C         139.1209  137.3750  163.6636 C.ar    1  UNL1       -0.0028
     26 C         138.8940  137.5852  165.1314 C.ar    1  UNL1        0.0058
     27 C         138.4556  138.9273  165.6379 C.ar    1  UNL1        0.0988
     28 C         138.2442  140.0593  164.6766 C.ar    1  UNL1        0.1437
     29 F         137.8059  141.4014  165.1831 F       1  UNL1       -0.2042
     30 C         138.4712  139.8490  163.2088 C.ar    1  UNL1        0.0267
     31 C         138.2287  139.1375  167.1056 C.3     1  UNL1        0.4207
     32 F         138.0017  139.3477  168.5733 F       1  UNL1       -0.1658
     33 F         139.4018  140.0710  167.1533 F       1  UNL1       -0.1658
     34 F         137.0555  138.2040  167.0579 F       1  UNL1       -0.1658
@<TRIPOS>BOND
     1     7     8    1
     2     8     9   am
     3     9    10    2
     4     9    11    1
     5    11    12    1
     6    12    13   ar
     7    13    14   ar
     8    14    15   ar
     9    15    18    1
    10    18    19   ar
    11    19    20   ar
    12    20    21   ar
    13    21    22   ar
    14    15    16   ar
    15    16    17   ar
    16     8     1    1
    17     1     2    1
    18     2     3    1
    19     3     4    1
    20     4    23    1
    21    23    24    1
    22    24    25   ar
    23    25    26   ar
    24    26    27   ar
    25    27    31    1
    26    31    32    1
    27    31    33    1
    28    31    34    1
    29    27    28   ar
    30    28    29    1
    31    28    30   ar
    32     4     5    1
    33     5     6    1
    34    17    12   ar
    35     6     1    1
    36    22    18   ar
    37    30    24   ar
@<TRIPOS>MOLECULE
*****
 34 37 0 0 0
SMALL
GASTEIGER

@<TRIPOS>ATOM
      1 C         141.8515  140.0239  160.6931 C.3     1  UNL1        0.0782
      2 C         142.2778  139.5190  162.0397 C.3     1  UNL1        0.0372
      3 C         142.6895  140.4879  163.1082 C.3     1  UNL1        0.0741
      4 N         142.6749  141.9618  162.8301 N.3     1  UNL1       -0.2688
      5 C         142.2486  142.4668  161.4835 C.3     1  UNL1        0.0741
      6 C         141.8369  141.4979  160.4150 C.3     1  UNL1        0.0372
      7 C         142.4789  138.2528  158.8989 C.3     1  UNL1        0.1148
      8 N         141.4399  139.0549  159.6247 N.am    1  UNL1       -0.2790
      9 C         139.9890  138.8882  159.2820 C.2     1  UNL1        0.2301
     10 O         139.5774  137.9192  158.2135 O.2     1  UNL1       -0.2745
     11 C         138.9500  139.6904  160.0077 C.3     1  UNL1        0.1116
     12 C         138.7978  139.5515  161.4936 C.ar    1  UNL1       -0.0130
     13 C         138.8599  138.1948  162.1303 C.ar    1  UNL1       -0.0022
     14 C         138.7078  138.0559  163.6160 C.ar    1  UNL1        0.0190
     15 C         138.4936  139.2738  164.4651 C.ar    1  UNL1        0.0862
     16 C         138.4315  140.6305  163.8284 C.ar    1  UNL1        0.0190
     17 C         138.5836  140.7693  162.3426 C.ar    1  UNL1       -0.0022
     18 N         138.3414  139.1349  165.9509 N.ar    1  UNL1       -0.1886
     19 C         139.2381  139.7410  166.9895 C.ar    1  UNL1        0.2258
     20 N         138.7169  139.3463  168.3395 N.ar    1  UNL1       -0.1045
     21 N         137.4979  138.4961  168.1352 N.ar    1  UNL1       -0.0222
     22 N         137.2660  138.3655  166.6590 N.ar    1  UNL1       -0.0385
     23 C         143.0866  142.9308  163.8986 C.3     1  UNL1        0.0992
     24 C         142.5377  142.7931  165.2878 C.ar    1  UNL1       -0.0039
     25 C         141.0600  142.8955  165.5239 C.ar    1  UNL1       -0.0028
     26 C         140.5111  142.7578  166.9131 C.ar    1  UNL1        0.0058
     27 C         141.4400  142.5178  168.0661 C.ar    1  UNL1        0.0988
     28 C         142.9178  142.4155  167.8300 C.ar    1  UNL1        0.1437
     29 F         143.8468  142.1755  168.9830 F       1  UNL1       -0.2042
     30 C         143.4667  142.5531  166.4408 C.ar    1  UNL1        0.0267
     31 C         140.8912  142.3802  169.4553 C.3     1  UNL1        0.4207
     32 F         140.3424  142.2426  170.8445 F       1  UNL1       -0.1658
     33 F         141.1713  140.9070  169.4200 F       1  UNL1       -0.1658
     34 F         140.6112  143.8534  169.4906 F       1  UNL1       -0.1658
@<TRIPOS>BOND
     1     7     8    1
     2     8     9   am
     3     9    10    2
     4     9    11    1
     5    11    12    1
     6    12    13   ar
     7    13    14   ar
     8    14    15   ar
     9    15    18    1
    10    18    19   ar
    11    19    20   ar
    12    20    21   ar
    13    21    22   ar
    14    15    16   ar
    15    16    17   ar
    16     8     1    1
    17     1     2    1
    18     2     3    1
    19     3     4    1
    20     4    23    1
    21    23    24    1
    22    24    25   ar
    23    25    26   ar
    24    26    27   ar
    25    27    31    1
    26    31    32    1
    27    31    33    1
    28    31    34    1
    29    27    28   ar
    30    28    29    1
    31    28    30   ar
    32     4     5    1
    33     5     6    1
    34    17    12   ar
    35     6     1    1
    36    22    18   ar
    37    30    24   ar
@<TRIPOS>MOLECULE
*****
 34 37 0 0 0
SMALL
GASTEIGER

@<TRIPOS>ATOM
      1 C         141.4437  142.5673  167.8126 C.3     1  UNL1        0.0782
      2 C         140.5239  142.9060  166.6772 C.3     1  UNL1        0.0372
      3 C         141.0667  143.0334  165.2846 C.3     1  UNL1        0.0741
      4 N         142.5293  142.8220  165.0275 N.3     1  UNL1       -0.2688
      5 C         143.4492  142.4833  166.1630 C.3     1  UNL1        0.0741
      6 C         142.9064  142.3559  167.5555 C.3     1  UNL1        0.0372
      7 C         140.5557  143.6700  169.9910 C.3     1  UNL1        0.1148
      8 N         140.9009  142.4399  169.2051 N.am    1  UNL1       -0.2790
      9 C         140.7034  141.0823  169.8118 C.2     1  UNL1        0.2301
     10 O         140.1606  140.9549  171.2043 O.2     1  UNL1       -0.2745
     11 C         141.0486  139.8522  169.0259 C.3     1  UNL1        0.1116
     12 C         140.4535  139.6398  167.6654 C.ar    1  UNL1       -0.0130
     13 C         138.9651  139.6762  167.4838 C.ar    1  UNL1       -0.0022
     14 C         138.3701  139.4638  166.1234 C.ar    1  UNL1        0.0190
     15 C         139.2636  139.2149  164.9445 C.ar    1  UNL1        0.0862
     16 C         140.7521  139.1785  165.1261 C.ar    1  UNL1        0.0190
     17 C         141.3471  139.3909  166.4866 C.ar    1  UNL1       -0.0022
     18 N         138.6686  139.0025  163.5840 N.ar    1  UNL1       -0.1886
     19 C         137.9670  140.0388  162.7570 C.ar    1  UNL1        0.2258
     20 N         137.5355  139.3933  161.4736 N.ar    1  UNL1       -0.1045
     21 N         137.9704  137.9581  161.5074 N.ar    1  UNL1       -0.0222
     22 N         138.6707  137.7166  162.8118 N.ar    1  UNL1       -0.0385
     23 C         143.0721  142.9494  163.6350 C.3     1  UNL1        0.0992
     24 C         143.0460  141.7697  162.7090 C.ar    1  UNL1       -0.0039
     25 C         144.2939  140.9704  162.4773 C.ar    1  UNL1       -0.0028
     26 C         144.2678  139.7906  161.5512 C.ar    1  UNL1        0.0058
     27 C         142.9937  139.4102  160.8569 C.ar    1  UNL1        0.0988
     28 C         141.7457  140.2096  161.0887 C.ar    1  UNL1        0.1437
     29 F         140.4717  139.8292  160.3944 F       1  UNL1       -0.2042
     30 C         141.7719  141.3893  162.0147 C.ar    1  UNL1        0.0267
     31 C         142.9675  138.2305  159.9310 C.3     1  UNL1        0.4207
     32 F         142.9414  137.0507  159.0050 F       1  UNL1       -0.1658
     33 F         143.2399  139.1375  158.7677 F       1  UNL1       -0.1658
     34 F         142.6951  137.3235  161.0942 F       1  UNL1       -0.1658
@<TRIPOS>BOND
     1     7     8    1
     2     8     9   am
     3     9    10    2
     4     9    11    1
     5    11    12    1
     6    12    13   ar
     7    13    14   ar
     8    14    15   ar
     9    15    18    1
    10    18    19   ar
    11    19    20   ar
    12    20    21   ar
    13    21    22   ar
    14    15    16   ar
    15    16    17   ar
    16     8     1    1
    17     1     2    1
    18     2     3    1
    19     3     4    1
    20     4    23    1
    21    23    24    1
    22    24    25   ar
    23    25    26   ar
    24    26    27   ar
    25    27    31    1
    26    31    32    1
    27    31    33    1
    28    31    34    1
    29    27    28   ar
    30    28    29    1
    31    28    30   ar
    32     4     5    1
    33     5     6    1
    34    17    12   ar
    35     6     1    1
    36    22    18   ar
    37    30    24   ar
@<TRIPOS>MOLECULE
*****
 34 37 0 0 0
SMALL
GASTEIGER

@<TRIPOS>ATOM
      1 C         140.3902  139.3158  159.8168 C.3     1  UNL1        0.0782
      2 C         139.4381  138.3433  160.4473 C.3     1  UNL1        0.0372
      3 C         138.5997  138.7658  161.6172 C.3     1  UNL1        0.0741
      4 N         138.7134  140.1608  162.1565 N.3     1  UNL1       -0.2688
      5 C         139.6656  141.1334  161.5259 C.3     1  UNL1        0.0741
      6 C         140.5040  140.7109  160.3561 C.3     1  UNL1        0.0372
      7 C         140.8466  139.3152  157.2591 C.3     1  UNL1        0.1148
      8 N         141.2286  138.8933  158.6469 N.am    1  UNL1       -0.2790
      9 C         142.4490  138.0487  158.8649 C.2     1  UNL1        0.2301
     10 O         143.2874  137.6262  157.6950 O.2     1  UNL1       -0.2745
     11 C         142.8309  137.6268  160.2527 C.3     1  UNL1        0.1116
     12 C         143.1036  138.6623  161.3032 C.ar    1  UNL1       -0.0130
     13 C         142.4524  138.5538  162.6500 C.ar    1  UNL1       -0.0022
     14 C         142.7250  139.5893  163.7004 C.ar    1  UNL1        0.0190
     15 C         143.6488  140.7332  163.4040 C.ar    1  UNL1        0.0862
     16 C         144.3000  140.8417  162.0571 C.ar    1  UNL1        0.0190
     17 C         144.0274  139.8062  161.0067 C.ar    1  UNL1       -0.0022
     18 N         143.9215  141.7688  164.4545 N.ar    1  UNL1       -0.1886
     19 C         143.4064  141.7524  165.8632 C.ar    1  UNL1        0.2258
     20 N         143.9236  142.9759  166.5600 N.ar    1  UNL1       -0.1045
     21 N         144.7583  143.7484  165.5819 N.ar    1  UNL1       -0.0222
     22 N         144.7570  143.0023  164.2806 N.ar    1  UNL1       -0.0385
     23 C         137.8750  140.5834  163.3264 C.3     1  UNL1        0.0992
     24 C         138.4178  140.4651  164.7197 C.ar    1  UNL1       -0.0039
     25 C         138.1598  139.2244  165.5222 C.ar    1  UNL1       -0.0028
     26 C         138.7025  139.1060  166.9156 C.ar    1  UNL1        0.0058
     27 C         139.5032  140.2284  167.5064 C.ar    1  UNL1        0.0988
     28 C         139.7612  141.4692  166.7038 C.ar    1  UNL1        0.1437
     29 F         140.5619  142.5916  167.2947 F       1  UNL1       -0.2042
     30 C         139.2184  141.5875  165.3105 C.ar    1  UNL1        0.0267
     31 C         140.0459  140.1101  168.8997 C.3     1  UNL1        0.4207
     32 F         140.5887  139.9918  170.2931 F       1  UNL1       -0.1658
     33 F         141.4311  139.9507  168.3467 F       1  UNL1       -0.1658
     34 F         138.6608  140.2695  169.4528 F       1  UNL1       -0.1658
@<TRIPOS>BOND
     1     7     8    1
     2     8     9   am
     3     9    10    2
     4     9    11    1
     5    11    12    1
     6    12    13   ar
     7    13    14   ar
     8    14    15   ar
     9    15    18    1
    10    18    19   ar
    11    19    20   ar
    12    20    21   ar
    13    21    22   ar
    14    15    16   ar
    15    16    17   ar
    16     8     1    1
    17     1     2    1
    18     2     3    1
    19     3     4    1
    20     4    23    1
    21    23    24    1
    22    24    25   ar
    23    25    26   ar
    24    26    27   ar
    25    27    31    1
    26    31    32    1
    27    31    33    1
    28    31    34    1
    29    27    28   ar
    30    28    29    1
    31    28    30   ar
    32     4     5    1
    33     5     6    1
    34    17    12   ar
    35     6     1    1
    36    22    18   ar
    37    30    24   ar
@<TRIPOS>MOLECULE
*****
 34 37 0 0 0
SMALL
GASTEIGER

@<TRIPOS>ATOM
      1 C         140.4922  138.7445  160.9966 C.3     1  UNL1        0.0782
      2 C         140.2433  137.6413  161.9820 C.3     1  UNL1        0.0372
      3 C         139.7196  137.9620  163.3505 C.3     1  UNL1        0.0741
      4 N         139.4447  139.3859  163.7337 N.3     1  UNL1       -0.2688
      5 C         139.6936  140.4892  162.7483 C.3     1  UNL1        0.0741
      6 C         140.2173  140.1685  161.3798 C.3     1  UNL1        0.0372
      7 C         140.0891  138.4352  158.4487 C.3     1  UNL1        0.1148
      8 N         141.0159  138.4238  159.6281 N.am    1  UNL1       -0.2790
      9 C         142.4664  138.0917  159.4390 C.2     1  UNL1        0.2301
     10 O         142.9902  137.7710  158.0705 O.2     1  UNL1       -0.2745
     11 C         143.3932  138.0803  160.6184 C.3     1  UNL1        0.1116
     12 C         143.5795  139.3228  161.4378 C.ar    1  UNL1       -0.0130
     13 C         143.7944  140.6433  160.7596 C.ar    1  UNL1       -0.0022
     14 C         143.9808  141.8858  161.5791 C.ar    1  UNL1        0.0190
     15 C         143.9522  141.8077  163.0768 C.ar    1  UNL1        0.0862
     16 C         143.7373  140.4872  163.7550 C.ar    1  UNL1        0.0190
     17 C         143.5509  139.2447  162.9355 C.ar    1  UNL1       -0.0022
     18 N         144.1385  143.0502  163.8963 N.ar    1  UNL1       -0.1886
     19 C         144.7233  143.1169  165.2760 C.ar    1  UNL1        0.2258
     20 N         144.7190  144.5520  165.7124 N.ar    1  UNL1       -0.1045
     21 N         144.1316  145.3723  164.6023 N.ar    1  UNL1       -0.0222
     22 N         143.7728  144.4441  163.4800 N.ar    1  UNL1       -0.0385
     23 C         138.9210  139.7066  165.1022 C.3     1  UNL1        0.0992
     24 C         139.8529  139.7212  166.2775 C.ar    1  UNL1       -0.0039
     25 C         139.3367  140.0791  167.6395 C.ar    1  UNL1       -0.0028
     26 C         140.2686  140.0937  168.8149 C.ar    1  UNL1        0.0058
     27 C         141.7167  139.7503  168.6281 C.ar    1  UNL1        0.0988
     28 C         142.2330  139.3924  167.2659 C.ar    1  UNL1        0.1437
     29 F         143.6812  139.0490  167.0791 F       1  UNL1       -0.2042
     30 C         141.3011  139.3778  166.0907 C.ar    1  UNL1        0.0267
     31 C         142.6486  139.7649  169.8034 C.3     1  UNL1        0.4207
     32 F         143.5805  139.7795  170.9786 F       1  UNL1       -0.1658
     33 F         142.1389  138.4185  170.2243 F       1  UNL1       -0.1658
     34 F         143.1584  141.1113  169.3825 F       1  UNL1       -0.1658
@<TRIPOS>BOND
     1     7     8    1
     2     8     9   am
     3     9    10    2
     4     9    11    1
     5    11    12    1
     6    12    13   ar
     7    13    14   ar
     8    14    15   ar
     9    15    18    1
    10    18    19   ar
    11    19    20   ar
    12    20    21   ar
    13    21    22   ar
    14    15    16   ar
    15    16    17   ar
    16     8     1    1
    17     1     2    1
    18     2     3    1
    19     3     4    1
    20     4    23    1
    21    23    24    1
    22    24    25   ar
    23    25    26   ar
    24    26    27   ar
    25    27    31    1
    26    31    32    1
    27    31    33    1
    28    31    34    1
    29    27    28   ar
    30    28    29    1
    31    28    30   ar
    32     4     5    1
    33     5     6    1
    34    17    12   ar
    35     6     1    1
    36    22    18   ar
    37    30    24   ar
@<TRIPOS>MOLECULE
*****
 34 37 0 0 0
SMALL
GASTEIGER

@<TRIPOS>ATOM
      1 C         142.6881  138.7783  160.1098 C.3     1  UNL1        0.0782
      2 C         142.6044  137.8944  161.3188 C.3     1  UNL1        0.0372
      3 C         143.2715  138.3073  162.5973 C.3     1  UNL1        0.0741
      4 N         144.0222  139.6041  162.6668 N.3     1  UNL1       -0.2688
      5 C         144.1058  140.4880  161.4577 C.3     1  UNL1        0.0741
      6 C         143.4388  140.0751  160.1792 C.3     1  UNL1        0.0372
      7 C         142.6651  137.3395  157.9466 C.3     1  UNL1        0.1148
      8 N         142.0210  138.3654  158.8313 N.am    1  UNL1       -0.2790
      9 C         140.7098  138.9785  158.4374 C.2     1  UNL1        0.2301
     10 O         140.0428  138.5656  157.1589 O.2     1  UNL1       -0.2745
     11 C         140.0658  140.0044  159.3221 C.3     1  UNL1        0.1116
     12 C         139.6633  139.6421  160.7210 C.ar    1  UNL1       -0.0130
     13 C         138.9068  138.3728  160.9788 C.ar    1  UNL1       -0.0022
     14 C         138.5044  138.0106  162.3777 C.ar    1  UNL1        0.0190
     15 C         138.8585  138.9176  163.5187 C.ar    1  UNL1        0.0862
     16 C         139.6151  140.1869  163.2608 C.ar    1  UNL1        0.0190
     17 C         140.0175  140.5491  161.8620 C.ar    1  UNL1       -0.0022
     18 N         138.4560  138.5553  164.9176 N.ar    1  UNL1       -0.1886
     19 C         138.2621  137.1654  165.4472 C.ar    1  UNL1        0.2258
     20 N         137.8631  137.2704  166.8893 N.ar    1  UNL1       -0.1045
     21 N         137.8104  138.7252  167.2510 N.ar    1  UNL1       -0.0222
     22 N         138.1769  139.5193  166.0323 N.ar    1  UNL1       -0.0385
     23 C         144.6892  140.0170  163.9453 C.3     1  UNL1        0.0992
     24 C         143.8843  140.6523  165.0400 C.ar    1  UNL1       -0.0039
     25 C         143.9664  142.1324  165.2689 C.ar    1  UNL1       -0.0028
     26 C         143.1615  142.7678  166.3637 C.ar    1  UNL1        0.0058
     27 C         142.2745  141.9230  167.2295 C.ar    1  UNL1        0.0988
     28 C         142.1924  140.4428  167.0005 C.ar    1  UNL1        0.1437
     29 F         141.3054  139.5980  167.8662 F       1  UNL1       -0.2042
     30 C         142.9973  139.8075  165.9057 C.ar    1  UNL1        0.0267
     31 C         141.4696  142.5583  168.3242 C.3     1  UNL1        0.4207
     32 F         140.6647  143.1936  169.4189 F       1  UNL1       -0.1658
     33 F         142.7179  142.7425  169.1352 F       1  UNL1       -0.1658
     34 F         140.2212  142.3742  167.5132 F       1  UNL1       -0.1658
@<TRIPOS>BOND
     1     7     8    1
     2     8     9   am
     3     9    10    2
     4     9    11    1
     5    11    12    1
     6    12    13   ar
     7    13    14   ar
     8    14    15   ar
     9    15    18    1
    10    18    19   ar
    11    19    20   ar
    12    20    21   ar
    13    21    22   ar
    14    15    16   ar
    15    16    17   ar
    16     8     1    1
    17     1     2    1
    18     2     3    1
    19     3     4    1
    20     4    23    1
    21    23    24    1
    22    24    25   ar
    23    25    26   ar
    24    26    27   ar
    25    27    31    1
    26    31    32    1
    27    31    33    1
    28    31    34    1
    29    27    28   ar
    30    28    29    1
    31    28    30   ar
    32     4     5    1
    33     5     6    1
    34    17    12   ar
    35     6     1    1
    36    22    18   ar
    37    30    24   ar
