@<TRIPOS>MOLECULE
*****
 39 43 0 0 0
SMALL
GASTEIGER

@<TRIPOS>ATOM
      1 C         142.4060  139.7569  162.0449 C.ar    1  UNL1        0.1200
      2 N         141.6434  138.9137  161.0664 N.ar    1  UNL1       -0.2309
      3 C         142.4331  138.8534  159.7925 C.ar    1  UNL1        0.0997
      4 C         143.6837  139.6592  159.9837 C.ar    1  UNL1        0.0961
      5 N         143.6670  140.2176  161.3758 N.ar    1  UNL1       -0.3123
      6 C         142.0409  138.1165  158.5461 C.ar    1  UNL1        0.0193
      7 C         140.7825  138.4884  157.8195 C.ar    1  UNL1        0.0038
      8 C         140.3903  137.7516  156.5733 C.ar    1  UNL1        0.0296
      9 C         141.2567  136.6428  156.0535 C.ar    1  UNL1        0.1440
     10 F         140.8646  135.9060  154.8072 F       1  UNL1       -0.2042
     11 C         142.5151  136.2709  156.7801 C.ar    1  UNL1        0.0988
     12 C         142.9073  137.0078  158.0264 C.ar    1  UNL1        0.0077
     13 C         143.3815  135.1622  156.2604 C.3     1  UNL1        0.4207
     14 F         144.2478  134.0534  155.7406 F       1  UNL1       -0.1658
     15 F         144.3261  136.1724  155.6798 F       1  UNL1       -0.1658
     16 F         142.4368  134.1519  156.8409 F       1  UNL1       -0.1658
     17 N         141.1341  140.7328  166.2496 N.pl3   1  UNL1       -0.2934
     18 C         140.6860  141.5995  165.1102 C.3     1  UNL1        0.0926
     19 C         141.1099  141.2742  163.7087 C.3     1  UNL1        0.0290
     20 C         141.9820  140.0822  163.4464 C.3     1  UNL1        0.0603
     21 C         142.4301  139.2155  164.5858 C.3     1  UNL1        0.0290
     22 C         142.0061  139.5409  165.9874 C.3     1  UNL1        0.0926
     23 C         139.5899  140.2940  168.2924 C.ar    1  UNL1        0.0406
     24 C         139.1660  140.6193  169.6940 C.ar    1  UNL1        0.1258
     25 N         138.0458  139.8551  170.3353 N.pl3   1  UNL1       -0.3428
     26 N         139.8622  141.7090  170.4543 N.ar    1  UNL1       -0.2097
     27 C         140.9823  142.4732  169.8131 C.ar    1  UNL1        0.2012
     28 N         141.4062  142.1478  168.4115 N.ar    1  UNL1       -0.2092
     29 C         140.7101  141.0582  167.6512 C.ar    1  UNL1        0.1320
     30 H         137.5889  139.1399  169.8363 H       1  UNL1        0.1437
     31 H         137.7676  140.0686  171.2552 H       1  UNL1        0.1437
     32 C         138.0434  139.5441  166.3442 C.3     1  UNL1        0.0052
     33 C         138.8938  139.2043  167.5321 C.3     1  UNL1        0.0320
     34 C         144.7254  141.0845  161.9908 C.3     1  UNL1        0.1245
     35 C         144.7394  142.5592  161.7172 C.3     1  UNL1        0.0969
     36 N         143.9309  143.4886  162.5732 N.3     1  UNL1       -0.2710
     37 C         143.9852  143.9276  164.0064 C.3     1  UNL1        0.0736
     38 C         142.7876  144.8028  163.7837 C.3     1  UNL1        0.0346
     39 C         142.7334  144.3639  162.3504 C.3     1  UNL1        0.0736
@<TRIPOS>BOND
     1    32    33    1
     2    33    23    1
     3    23    24   ar
     4    24    25    1
     5    24    26   ar
     6    26    27   ar
     7    27    28   ar
     8    28    29   ar
     9    29    17    1
    10    17    18    1
    11    18    19    1
    12    19    20    1
    13    20     1    1
    14     1     2   ar
    15     2     3   ar
    16     3     6    1
    17     6     7   ar
    18     7     8   ar
    19     8     9   ar
    20     9    10    1
    21     9    11   ar
    22    11    13    1
    23    13    14    1
    24    13    15    1
    25    13    16    1
    26    11    12   ar
    27     3     4   ar
    28     4     5   ar
    29     5    34    1
    30    34    35    1
    31    35    36    1
    32    36    37    1
    33    37    38    1
    34    38    39    1
    35    20    21    1
    36    21    22    1
    37    29    23   ar
    38    22    17    1
    39     5     1   ar
    40    39    36    1
    41    12     6   ar
    42    25    30    1
    43    25    31    1
@<TRIPOS>MOLECULE
*****
 39 43 0 0 0
SMALL
GASTEIGER

@<TRIPOS>ATOM
      1 C         140.6319  139.5545  163.2533 C.ar    1  UNL1        0.1200
      2 N         141.2614  139.9322  164.5614 N.ar    1  UNL1       -0.2309
      3 C         140.2029  139.8641  165.6220 C.ar    1  UNL1        0.0997
      4 C         138.9191  139.4444  164.9694 C.ar    1  UNL1        0.0961
      5 N         139.1842  139.2531  163.5055 N.ar    1  UNL1       -0.3123
      6 C         140.3946  140.1632  167.0794 C.ar    1  UNL1        0.0193
      7 C         139.2896  139.8828  168.0542 C.ar    1  UNL1        0.0038
      8 C         139.4811  140.1818  169.5114 C.ar    1  UNL1        0.0296
      9 C         140.7778  140.7614  169.9941 C.ar    1  UNL1        0.1440
     10 F         140.9695  141.0605  171.4513 F       1  UNL1       -0.2042
     11 C         141.8829  141.0418  169.0192 C.ar    1  UNL1        0.0988
     12 C         141.6912  140.7427  167.5619 C.ar    1  UNL1        0.0077
     13 C         143.1795  141.6213  169.5018 C.3     1  UNL1        0.4207
     14 F         144.4762  142.2007  169.9843 F       1  UNL1       -0.1658
     15 F         142.9050  142.8779  168.7302 F       1  UNL1       -0.1658
     16 F         143.4540  140.3646  170.2733 F       1  UNL1       -0.1658
     17 N         142.7195  139.3602  159.2716 N.pl3   1  UNL1       -0.2934
     18 C         143.0070  138.3271  160.3204 C.3     1  UNL1        0.0926
     19 C         142.3112  138.3919  161.6476 C.3     1  UNL1        0.0290
     20 C         141.3277  139.4898  161.9261 C.3     1  UNL1        0.0603
     21 C         141.0401  140.5229  160.8773 C.3     1  UNL1        0.0290
     22 C         141.7360  140.4580  159.5500 C.3     1  UNL1        0.0926
     23 C         143.0237  138.2501  156.9424 C.ar    1  UNL1        0.0406
     24 C         143.7196  138.1853  155.6152 C.ar    1  UNL1        0.1258
     25 N         143.3279  137.1400  154.6131 N.pl3   1  UNL1       -0.3428
     26 N         144.8072  139.1658  155.2899 N.ar    1  UNL1       -0.2097
     27 C         145.1989  140.2111  156.2919 C.ar    1  UNL1        0.2012
     28 N         144.5030  140.2759  157.6191 N.ar    1  UNL1       -0.2092
     29 C         143.4154  139.2954  157.9443 C.ar    1  UNL1        0.1320
     30 H         142.6141  136.4965  154.8266 H       1  UNL1        0.1437
     31 H         143.7847  137.0975  153.7420 H       1  UNL1        0.1437
     32 C         140.5012  137.6334  157.0252 C.3     1  UNL1        0.0052
     33 C         141.9361  137.2696  157.2676 C.3     1  UNL1        0.0320
     34 C         138.1784  138.8339  162.4748 C.3     1  UNL1        0.1245
     35 C         137.4764  139.8694  161.6472 C.3     1  UNL1        0.0969
     36 N         137.6220  141.3238  161.9840 N.3     1  UNL1       -0.2710
     37 C         137.3498  142.1641  163.1964 C.3     1  UNL1        0.0736
     38 C         137.8278  143.3806  162.4605 C.3     1  UNL1        0.0346
     39 C         138.1000  142.5403  161.2482 C.3     1  UNL1        0.0736
@<TRIPOS>BOND
     1    32    33    1
     2    33    23    1
     3    23    24   ar
     4    24    25    1
     5    24    26   ar
     6    26    27   ar
     7    27    28   ar
     8    28    29   ar
     9    29    17    1
    10    17    18    1
    11    18    19    1
    12    19    20    1
    13    20     1    1
    14     1     2   ar
    15     2     3   ar
    16     3     6    1
    17     6     7   ar
    18     7     8   ar
    19     8     9   ar
    20     9    10    1
    21     9    11   ar
    22    11    13    1
    23    13    14    1
    24    13    15    1
    25    13    16    1
    26    11    12   ar
    27     3     4   ar
    28     4     5   ar
    29     5    34    1
    30    34    35    1
    31    35    36    1
    32    36    37    1
    33    37    38    1
    34    38    39    1
    35    20    21    1
    36    21    22    1
    37    29    23   ar
    38    22    17    1
    39     5     1   ar
    40    39    36    1
    41    12     6   ar
    42    25    30    1
    43    25    31    1
@<TRIPOS>MOLECULE
*****
 39 43 0 0 0
SMALL
GASTEIGER

@<TRIPOS>ATOM
      1 C         141.2072  141.4985  163.1990 C.ar    1  UNL1        0.1200
      2 N         141.7506  141.1978  164.5643 N.ar    1  UNL1       -0.2309
      3 C         141.3826  142.3351  165.4705 C.ar    1  UNL1        0.0997
      4 C         140.6117  143.3387  164.6652 C.ar    1  UNL1        0.0961
      5 N         140.5033  142.8217  163.2613 N.ar    1  UNL1       -0.3123
      6 C         141.7253  142.4488  166.9264 C.ar    1  UNL1        0.0193
      7 C         143.1368  142.2292  167.3841 C.ar    1  UNL1        0.0038
      8 C         143.4796  142.3429  168.8398 C.ar    1  UNL1        0.0296
      9 C         142.4108  142.6763  169.8382 C.ar    1  UNL1        0.1440
     10 F         142.7535  142.7900  171.2941 F       1  UNL1       -0.2042
     11 C         140.9993  142.8959  169.3806 C.ar    1  UNL1        0.0988
     12 C         140.6566  142.7822  167.9247 C.ar    1  UNL1        0.0077
     13 C         139.9305  143.2293  170.3789 C.3     1  UNL1        0.4207
     14 F         138.8617  143.5626  171.3771 F       1  UNL1       -0.1658
     15 F         140.2180  144.6904  170.1987 F       1  UNL1       -0.1658
     16 F         139.6431  141.7681  170.5591 F       1  UNL1       -0.1658
     17 N         141.6166  138.8893  159.5556 N.pl3   1  UNL1       -0.2934
     18 C         141.0449  138.3245  160.8222 C.3     1  UNL1        0.0926
     19 C         140.9084  139.1942  162.0366 C.3     1  UNL1        0.0290
     20 C         141.3436  140.6288  161.9845 C.3     1  UNL1        0.0603
     21 C         141.9154  141.1936  160.7180 C.3     1  UNL1        0.0290
     22 C         142.0518  140.3238  159.5035 C.3     1  UNL1        0.0926
     23 C         140.6617  137.9910  157.3126 C.ar    1  UNL1        0.0406
     24 C         140.7982  137.1212  156.0982 C.ar    1  UNL1        0.1258
     25 N         139.7068  137.0927  155.0695 N.pl3   1  UNL1       -0.3428
     26 N         142.0261  136.2799  155.9123 N.ar    1  UNL1       -0.2097
     27 C         143.1174  136.3084  156.9409 C.ar    1  UNL1        0.2012
     28 N         142.9809  137.1782  158.1553 N.ar    1  UNL1       -0.2092
     29 C         141.7531  138.0195  158.3411 C.ar    1  UNL1        0.1320
     30 H         138.9008  137.6449  155.1914 H       1  UNL1        0.1437
     31 H         139.7963  136.5218  154.2724 H       1  UNL1        0.1437
     32 C         139.3438  140.1815  156.8493 C.3     1  UNL1        0.0052
     33 C         139.4338  138.8323  157.4984 C.3     1  UNL1        0.0320
     34 C         139.8123  143.5074  162.1201 C.3     1  UNL1        0.1245
     35 C         138.3946  143.1542  161.7804 C.3     1  UNL1        0.0969
     36 N         138.0424  141.7459  161.4027 N.3     1  UNL1       -0.2710
     37 C         137.4952  140.5567  162.1349 C.3     1  UNL1        0.0736
     38 C         137.5443  139.7544  160.8685 C.3     1  UNL1        0.0346
     39 C         138.0915  140.9436  160.1363 C.3     1  UNL1        0.0736
@<TRIPOS>BOND
     1    32    33    1
     2    33    23    1
     3    23    24   ar
     4    24    25    1
     5    24    26   ar
     6    26    27   ar
     7    27    28   ar
     8    28    29   ar
     9    29    17    1
    10    17    18    1
    11    18    19    1
    12    19    20    1
    13    20     1    1
    14     1     2   ar
    15     2     3   ar
    16     3     6    1
    17     6     7   ar
    18     7     8   ar
    19     8     9   ar
    20     9    10    1
    21     9    11   ar
    22    11    13    1
    23    13    14    1
    24    13    15    1
    25    13    16    1
    26    11    12   ar
    27     3     4   ar
    28     4     5   ar
    29     5    34    1
    30    34    35    1
    31    35    36    1
    32    36    37    1
    33    37    38    1
    34    38    39    1
    35    20    21    1
    36    21    22    1
    37    29    23   ar
    38    22    17    1
    39     5     1   ar
    40    39    36    1
    41    12     6   ar
    42    25    30    1
    43    25    31    1
@<TRIPOS>MOLECULE
*****
 39 43 0 0 0
SMALL
GASTEIGER

@<TRIPOS>ATOM
      1 C         142.3843  139.4536  162.3500 C.ar    1  UNL1        0.1200
      2 N         141.6101  138.7223  161.2938 N.ar    1  UNL1       -0.2309
      3 C         142.4092  138.7582  160.0249 C.ar    1  UNL1        0.0997
      4 C         143.6773  139.5118  160.2969 C.ar    1  UNL1        0.0961
      5 N         143.6619  139.9416  161.7339 N.ar    1  UNL1       -0.3123
      6 C         142.0102  138.1477  158.7141 C.ar    1  UNL1        0.0193
      7 C         140.7728  138.6223  158.0114 C.ar    1  UNL1        0.0038
      8 C         140.3738  138.0119  156.7007 C.ar    1  UNL1        0.0296
      9 C         141.2122  136.9268  156.0925 C.ar    1  UNL1        0.1440
     10 F         140.8132  136.3163  154.7818 F       1  UNL1       -0.2042
     11 C         142.4495  136.4522  156.7952 C.ar    1  UNL1        0.0988
     12 C         142.8485  137.0627  158.1060 C.ar    1  UNL1        0.0077
     13 C         143.2879  135.3672  156.1871 C.3     1  UNL1        0.4207
     14 F         144.1262  134.2821  155.5790 F       1  UNL1       -0.1658
     15 F         142.2256  134.3611  156.5176 F       1  UNL1       -0.1658
     16 F         144.3502  136.3732  155.8565 F       1  UNL1       -0.1658
     17 N         141.0998  140.0747  166.6178 N.pl3   1  UNL1       -0.2934
     18 C         141.8579  138.8383  166.2351 C.3     1  UNL1        0.0926
     19 C         142.2861  138.6312  164.8126 C.3     1  UNL1        0.0290
     20 C         141.9562  139.6607  163.7726 C.3     1  UNL1        0.0603
     21 C         141.1980  140.8971  164.1553 C.3     1  UNL1        0.0290
     22 C         140.7698  141.1041  165.5779 C.3     1  UNL1        0.0926
     23 C         141.6413  140.8341  169.0428 C.ar    1  UNL1        0.0406
     24 C         141.2131  141.0411  170.4653 C.ar    1  UNL1        0.1258
     25 N         142.1828  141.5934  171.4677 N.pl3   1  UNL1       -0.3428
     26 N         139.8152  140.6957  170.8856 N.ar    1  UNL1       -0.2097
     27 C         138.8455  140.1434  169.8833 C.ar    1  UNL1        0.2012
     28 N         139.2737  139.9364  168.4608 N.ar    1  UNL1       -0.2092
     29 C         140.6716  140.2817  168.0405 C.ar    1  UNL1        0.1320
     30 H         143.1003  141.8201  171.1919 H       1  UNL1        0.1437
     31 H         141.9017  141.7293  172.4014 H       1  UNL1        0.1437
     32 C         143.3134  142.4792  167.9259 C.3     1  UNL1        0.0052
     33 C         143.0392  141.1794  168.6225 C.3     1  UNL1        0.0320
     34 C         144.7357  140.7223  162.4321 C.3     1  UNL1        0.1245
     35 C         144.8765  142.1944  162.1810 C.3     1  UNL1        0.0969
     36 N         144.0005  143.1673  162.9132 N.3     1  UNL1       -0.2710
     37 C         143.9606  143.7166  164.3084 C.3     1  UNL1        0.0736
     38 C         142.7619  144.5433  163.9487 C.3     1  UNL1        0.0346
     39 C         142.8018  143.9940  162.5535 C.3     1  UNL1        0.0736
@<TRIPOS>BOND
     1    32    33    1
     2    33    23    1
     3    23    24   ar
     4    24    25    1
     5    24    26   ar
     6    26    27   ar
     7    27    28   ar
     8    28    29   ar
     9    29    17    1
    10    17    18    1
    11    18    19    1
    12    19    20    1
    13    20     1    1
    14     1     2   ar
    15     2     3   ar
    16     3     6    1
    17     6     7   ar
    18     7     8   ar
    19     8     9   ar
    20     9    10    1
    21     9    11   ar
    22    11    13    1
    23    13    14    1
    24    13    15    1
    25    13    16    1
    26    11    12   ar
    27     3     4   ar
    28     4     5   ar
    29     5    34    1
    30    34    35    1
    31    35    36    1
    32    36    37    1
    33    37    38    1
    34    38    39    1
    35    20    21    1
    36    21    22    1
    37    29    23   ar
    38    22    17    1
    39     5     1   ar
    40    39    36    1
    41    12     6   ar
    42    25    30    1
    43    25    31    1
@<TRIPOS>MOLECULE
*****
 39 43 0 0 0
SMALL
GASTEIGER

@<TRIPOS>ATOM
      1 C         142.0778  139.9752  160.9860 C.ar    1  UNL1        0.1200
      2 N         141.5762  138.7746  160.2397 N.ar    1  UNL1       -0.2309
      3 C         142.0530  138.8779  158.8213 C.ar    1  UNL1        0.0997
      4 C         142.8493  140.1424  158.6908 C.ar    1  UNL1        0.0961
      5 N         142.8646  140.8205  160.0287 N.ar    1  UNL1       -0.3123
      6 C         141.7811  137.8902  157.7256 C.ar    1  UNL1        0.0193
      7 C         140.5462  138.0237  156.8848 C.ar    1  UNL1        0.0038
      8 C         140.2743  137.0361  155.7891 C.ar    1  UNL1        0.0296
      9 C         141.2375  135.9147  155.5342 C.ar    1  UNL1        0.1440
     10 F         140.9657  134.9270  154.4386 F       1  UNL1       -0.2042
     11 C         142.4725  135.7811  156.3751 C.ar    1  UNL1        0.0988
     12 C         142.7443  136.7688  157.4707 C.ar    1  UNL1        0.0077
     13 C         143.4356  134.6598  156.1202 C.3     1  UNL1        0.4207
     14 F         144.3988  133.5385  155.8653 F       1  UNL1       -0.1658
     15 F         142.8943  133.9244  157.3102 F       1  UNL1       -0.1658
     16 F         143.9769  135.3952  154.9302 F       1  UNL1       -0.1658
     17 N         141.3501  140.8817  165.3332 N.pl3   1  UNL1       -0.2934
     18 C         142.3033  139.7910  164.9439 C.3     1  UNL1        0.0926
     19 C         142.5459  139.4888  163.4948 C.3     1  UNL1        0.0290
     20 C         141.8352  140.2774  162.4350 C.3     1  UNL1        0.0603
     21 C         140.8820  141.3681  162.8243 C.3     1  UNL1        0.0290
     22 C         140.6394  141.6703  164.2735 C.3     1  UNL1        0.0926
     23 C         140.0915  140.3944  167.5532 C.ar    1  UNL1        0.0406
     24 C         139.8490  140.6966  169.0023 C.ar    1  UNL1        0.1258
     25 N         138.8329  139.9070  169.7733 N.pl3   1  UNL1       -0.3428
     26 N         140.6225  141.7883  169.6805 N.ar    1  UNL1       -0.2097
     27 C         141.6385  142.5778  168.9096 C.ar    1  UNL1        0.2012
     28 N         141.8811  142.2756  167.4605 N.ar    1  UNL1       -0.2092
     29 C         141.1075  141.1839  166.7823 C.ar    1  UNL1        0.1320
     30 H         138.3253  139.1905  169.3282 H       1  UNL1        0.1437
     31 H         138.6738  140.1054  170.7244 H       1  UNL1        0.1437
     32 C         138.1334  139.6427  166.0201 C.3     1  UNL1        0.0052
     33 C         139.3180  139.3027  166.8751 C.3     1  UNL1        0.0320
     34 C         143.5470  142.1165  160.3524 C.3     1  UNL1        0.1245
     35 C         144.8434  142.1135  161.1069 C.3     1  UNL1        0.0969
     36 N         144.8477  142.3260  162.5917 N.3     1  UNL1       -0.2710
     37 C         145.6071  141.7400  163.7448 C.3     1  UNL1        0.0736
     38 C         144.8537  142.6265  164.6916 C.3     1  UNL1        0.0346
     39 C         144.0943  143.2126  163.5384 C.3     1  UNL1        0.0736
@<TRIPOS>BOND
     1    32    33    1
     2    33    23    1
     3    23    24   ar
     4    24    25    1
     5    24    26   ar
     6    26    27   ar
     7    27    28   ar
     8    28    29   ar
     9    29    17    1
    10    17    18    1
    11    18    19    1
    12    19    20    1
    13    20     1    1
    14     1     2   ar
    15     2     3   ar
    16     3     6    1
    17     6     7   ar
    18     7     8   ar
    19     8     9   ar
    20     9    10    1
    21     9    11   ar
    22    11    13    1
    23    13    14    1
    24    13    15    1
    25    13    16    1
    26    11    12   ar
    27     3     4   ar
    28     4     5   ar
    29     5    34    1
    30    34    35    1
    31    35    36    1
    32    36    37    1
    33    37    38    1
    34    38    39    1
    35    20    21    1
    36    21    22    1
    37    29    23   ar
    38    22    17    1
    39     5     1   ar
    40    39    36    1
    41    12     6   ar
    42    25    30    1
    43    25    31    1
@<TRIPOS>MOLECULE
*****
 39 43 0 0 0
SMALL
GASTEIGER

@<TRIPOS>ATOM
      1 C         141.5243  140.6683  163.4925 C.ar    1  UNL1        0.1200
      2 N         141.2876  141.2205  164.8669 N.ar    1  UNL1       -0.2309
      3 C         141.8449  140.2451  165.8607 C.ar    1  UNL1        0.0997
      4 C         142.4261  139.0898  165.1006 C.ar    1  UNL1        0.0961
      5 N         142.2280  139.3514  163.6370 N.ar    1  UNL1       -0.3123
      6 C         141.8245  140.3979  167.3528 C.ar    1  UNL1        0.0193
      7 C         142.5316  139.3979  168.2189 C.ar    1  UNL1        0.0038
      8 C         142.5113  139.5507  169.7109 C.ar    1  UNL1        0.0296
      9 C         141.7839  140.7036  170.3370 C.ar    1  UNL1        0.1440
     10 F         141.7635  140.8564  171.8289 F       1  UNL1       -0.2042
     11 C         141.0768  141.7035  169.4709 C.ar    1  UNL1        0.0988
     12 C         141.0971  141.5507  167.9788 C.ar    1  UNL1        0.0077
     13 C         140.3493  142.8563  170.0969 C.3     1  UNL1        0.4207
     14 F         139.6219  144.0091  170.7229 F       1  UNL1       -0.1658
     15 F         139.1449  141.9858  170.3004 F       1  UNL1       -0.1658
     16 F         141.5538  143.7268  169.8934 F       1  UNL1       -0.1658
     17 N         140.3328  142.6194  159.6165 N.pl3   1  UNL1       -0.2934
     18 C         139.2950  142.3278  160.6595 C.3     1  UNL1        0.0926
     19 C         139.6921  141.6774  161.9515 C.3     1  UNL1        0.0290
     20 C         141.1272  141.3186  162.2005 C.3     1  UNL1        0.0603
     21 C         142.1650  141.6102  161.1575 C.3     1  UNL1        0.0290
     22 C         141.7678  142.2606  159.8655 C.3     1  UNL1        0.0926
     23 C         140.2243  144.7240  158.0970 C.ar    1  UNL1        0.0406
     24 C         139.8271  145.3743  156.8050 C.ar    1  UNL1        0.1258
     25 N         140.1159  146.8286  156.5775 N.pl3   1  UNL1       -0.3428
     26 N         139.1411  144.5704  155.7405 N.ar    1  UNL1       -0.2097
     27 C         138.8524  143.1162  155.9680 C.ar    1  UNL1        0.2012
     28 N         139.2496  142.4659  157.2600 N.ar    1  UNL1       -0.2092
     29 C         139.9356  143.2698  158.3245 C.ar    1  UNL1        0.1320
     30 H         140.5661  147.3563  157.2761 H       1  UNL1        0.1437
     31 H         139.8552  147.2554  155.7295 H       1  UNL1        0.1437
     32 C         140.2081  145.8124  160.4560 C.3     1  UNL1        0.0052
     33 C         140.9103  145.5279  159.1615 C.3     1  UNL1        0.0320
     34 C         142.6581  138.4538  162.5148 C.3     1  UNL1        0.1245
     35 C         141.6960  137.4557  161.9419 C.3     1  UNL1        0.0969
     36 N         140.2249  137.7483  161.9388 N.3     1  UNL1       -0.2710
     37 C         139.2338  138.1920  160.9040 C.3     1  UNL1        0.0736
     38 C         138.1444  138.1621  161.9345 C.3     1  UNL1        0.0346
     39 C         139.1354  137.7185  162.9694 C.3     1  UNL1        0.0736
@<TRIPOS>BOND
     1    32    33    1
     2    33    23    1
     3    23    24   ar
     4    24    25    1
     5    24    26   ar
     6    26    27   ar
     7    27    28   ar
     8    28    29   ar
     9    29    17    1
    10    17    18    1
    11    18    19    1
    12    19    20    1
    13    20     1    1
    14     1     2   ar
    15     2     3   ar
    16     3     6    1
    17     6     7   ar
    18     7     8   ar
    19     8     9   ar
    20     9    10    1
    21     9    11   ar
    22    11    13    1
    23    13    14    1
    24    13    15    1
    25    13    16    1
    26    11    12   ar
    27     3     4   ar
    28     4     5   ar
    29     5    34    1
    30    34    35    1
    31    35    36    1
    32    36    37    1
    33    37    38    1
    34    38    39    1
    35    20    21    1
    36    21    22    1
    37    29    23   ar
    38    22    17    1
    39     5     1   ar
    40    39    36    1
    41    12     6   ar
    42    25    30    1
    43    25    31    1
@<TRIPOS>MOLECULE
*****
 39 43 0 0 0
SMALL
GASTEIGER

@<TRIPOS>ATOM
      1 C         142.2696  139.4739  162.8291 C.ar    1  UNL1        0.1200
      2 N         142.9467  140.0257  161.6097 N.ar    1  UNL1       -0.2309
      3 C         142.6510  139.1086  160.4602 C.ar    1  UNL1        0.0997
      4 C         141.7910  137.9898  160.9692 C.ar    1  UNL1        0.0961
      5 N         141.5553  138.2156  162.4332 N.ar    1  UNL1       -0.3123
      6 C         143.1309  139.2800  159.0494 C.ar    1  UNL1        0.0193
      7 C         143.8693  140.5245  158.6544 C.ar    1  UNL1        0.0038
      8 C         144.3492  140.6960  157.2437 C.ar    1  UNL1        0.0296
      9 C         144.0908  139.6229  156.2279 C.ar    1  UNL1        0.1440
     10 F         144.5707  139.7943  154.8172 F       1  UNL1       -0.2042
     11 C         143.3524  138.3784  156.6229 C.ar    1  UNL1        0.0988
     12 C         142.8725  138.2069  158.0337 C.ar    1  UNL1        0.0077
     13 C         143.0940  137.3053  155.6072 C.3     1  UNL1        0.4207
     14 F         142.8356  136.2323  154.5914 F       1  UNL1       -0.1658
     15 F         144.5563  136.9719  155.5874 F       1  UNL1       -0.1658
     16 F         141.6317  137.6388  155.6269 F       1  UNL1       -0.1658
     17 N         142.3643  141.2765  166.9512 N.pl3   1  UNL1       -0.2934
     18 C         142.0048  142.1267  165.7688 C.3     1  UNL1        0.0926
     19 C         141.9732  141.5259  164.3948 C.3     1  UNL1        0.0290
     20 C         142.3012  140.0747  164.2031 C.3     1  UNL1        0.0603
     21 C         142.6607  139.2245  165.3854 C.3     1  UNL1        0.0290
     22 C         142.6922  139.8254  166.7595 C.3     1  UNL1        0.0926
     23 C         141.1446  141.9277  169.1508 C.ar    1  UNL1        0.0406
     24 C         141.1762  142.5286  170.5247 C.ar    1  UNL1        0.1258
     25 N         139.9248  142.5789  171.3504 N.pl3   1  UNL1       -0.3428
     26 N         142.4591  143.0793  171.0732 N.ar    1  UNL1       -0.2097
     27 C         143.7105  143.0291  170.2476 C.ar    1  UNL1        0.2012
     28 N         143.6789  142.4281  168.8736 N.ar    1  UNL1       -0.2092
     29 C         142.3959  141.8775  168.3252 C.ar    1  UNL1        0.1320
     30 H         139.0827  142.2174  170.9905 H       1  UNL1        0.1437
     31 H         139.9456  142.9733  172.2522 H       1  UNL1        0.1437
     32 C         139.2220  140.1829  169.2464 C.3     1  UNL1        0.0052
     33 C         139.8616  141.3770  168.6024 C.3     1  UNL1        0.0320
     34 C         140.7472  137.3374  163.3418 C.3     1  UNL1        0.1245
     35 C         139.2958  137.6348  163.5767 C.3     1  UNL1        0.0969
     36 N         138.8877  138.9409  164.1910 N.3     1  UNL1       -0.2710
     37 C         138.7399  139.4534  165.5930 C.3     1  UNL1        0.0736
     38 C         138.3105  140.7880  165.0598 C.3     1  UNL1        0.0346
     39 C         138.4583  140.2755  163.6579 C.3     1  UNL1        0.0736
@<TRIPOS>BOND
     1    32    33    1
     2    33    23    1
     3    23    24   ar
     4    24    25    1
     5    24    26   ar
     6    26    27   ar
     7    27    28   ar
     8    28    29   ar
     9    29    17    1
    10    17    18    1
    11    18    19    1
    12    19    20    1
    13    20     1    1
    14     1     2   ar
    15     2     3   ar
    16     3     6    1
    17     6     7   ar
    18     7     8   ar
    19     8     9   ar
    20     9    10    1
    21     9    11   ar
    22    11    13    1
    23    13    14    1
    24    13    15    1
    25    13    16    1
    26    11    12   ar
    27     3     4   ar
    28     4     5   ar
    29     5    34    1
    30    34    35    1
    31    35    36    1
    32    36    37    1
    33    37    38    1
    34    38    39    1
    35    20    21    1
    36    21    22    1
    37    29    23   ar
    38    22    17    1
    39     5     1   ar
    40    39    36    1
    41    12     6   ar
    42    25    30    1
    43    25    31    1
@<TRIPOS>MOLECULE
*****
 39 43 0 0 0
SMALL
GASTEIGER

@<TRIPOS>ATOM
      1 C         142.3216  141.5239  162.9845 C.ar    1  UNL1        0.1200
      2 N         142.2838  140.9645  164.3757 N.ar    1  UNL1       -0.2309
      3 C         142.1232  142.1094  165.3315 C.ar    1  UNL1        0.0997
      4 C         142.0616  143.3764  164.5309 C.ar    1  UNL1        0.0961
      5 N         142.1842  143.0146  163.0804 N.ar    1  UNL1       -0.3123
      6 C         142.0389  142.0055  166.8255 C.ar    1  UNL1        0.0193
      7 C         143.2245  142.3662  167.6705 C.ar    1  UNL1        0.0038
      8 C         143.1403  142.2624  169.1645 C.ar    1  UNL1        0.0296
      9 C         141.8703  141.7977  169.8136 C.ar    1  UNL1        0.1440
     10 F         141.7860  141.6939  171.3075 F       1  UNL1       -0.2042
     11 C         140.6846  141.4370  168.9686 C.ar    1  UNL1        0.0988
     12 C         140.7689  141.5409  167.4746 C.ar    1  UNL1        0.0077
     13 C         139.4146  140.9724  169.6176 C.3     1  UNL1        0.4207
     14 F         138.1447  140.5078  170.2667 F       1  UNL1       -0.1658
     15 F         139.5670  139.6340  168.9578 F       1  UNL1       -0.1658
     16 F         139.2622  142.3108  170.2775 F       1  UNL1       -0.1658
     17 N         142.7684  139.1475  159.1894 N.pl3   1  UNL1       -0.2934
     18 C         143.9174  139.2531  160.1478 C.3     1  UNL1        0.0926
     19 C         143.7685  140.0452  161.4129 C.3     1  UNL1        0.0290
     20 C         142.4705  140.7318  161.7195 C.3     1  UNL1        0.0603
     21 C         141.3215  140.6262  160.7610 C.3     1  UNL1        0.0290
     22 C         141.4704  139.8340  159.4959 C.3     1  UNL1        0.0926
     23 C         143.4064  139.0240  156.6739 C.ar    1  UNL1        0.0406
     24 C         143.5554  138.2318  155.4089 C.ar    1  UNL1        0.1258
     25 N         144.0444  138.9005  154.1584 N.pl3   1  UNL1       -0.3428
     26 N         143.2152  136.7710  155.3944 N.ar    1  UNL1       -0.2097
     27 C         142.7262  136.1023  156.6448 C.ar    1  UNL1        0.2012
     28 N         142.5772  136.8945  157.9098 N.ar    1  UNL1       -0.2092
     29 C         142.9173  138.3553  157.9243 C.ar    1  UNL1        0.1320
     30 H         144.2677  139.8593  154.1679 H       1  UNL1        0.1437
     31 H         144.1422  138.3806  153.3281 H       1  UNL1        0.1437
     32 C         145.1424  140.9267  157.0141 C.3     1  UNL1        0.0052
     33 C         143.7465  140.4849  156.6884 C.3     1  UNL1        0.0320
     34 C         142.1717  143.9748  161.9281 C.3     1  UNL1        0.1245
     35 C         140.8689  144.3877  161.3099 C.3     1  UNL1        0.0969
     36 N         139.5772  144.0845  162.0097 N.3     1  UNL1       -0.2710
     37 C         138.5103  143.0406  161.8617 C.3     1  UNL1        0.0736
     38 C         137.7506  143.6558  162.9993 C.3     1  UNL1        0.0346
     39 C         138.8175  144.6997  163.1473 C.3     1  UNL1        0.0736
@<TRIPOS>BOND
     1    32    33    1
     2    33    23    1
     3    23    24   ar
     4    24    25    1
     5    24    26   ar
     6    26    27   ar
     7    27    28   ar
     8    28    29   ar
     9    29    17    1
    10    17    18    1
    11    18    19    1
    12    19    20    1
    13    20     1    1
    14     1     2   ar
    15     2     3   ar
    16     3     6    1
    17     6     7   ar
    18     7     8   ar
    19     8     9   ar
    20     9    10    1
    21     9    11   ar
    22    11    13    1
    23    13    14    1
    24    13    15    1
    25    13    16    1
    26    11    12   ar
    27     3     4   ar
    28     4     5   ar
    29     5    34    1
    30    34    35    1
    31    35    36    1
    32    36    37    1
    33    37    38    1
    34    38    39    1
    35    20    21    1
    36    21    22    1
    37    29    23   ar
    38    22    17    1
    39     5     1   ar
    40    39    36    1
    41    12     6   ar
    42    25    30    1
    43    25    31    1
@<TRIPOS>MOLECULE
*****
 39 43 0 0 0
SMALL
GASTEIGER

@<TRIPOS>ATOM
      1 C         141.1199  140.6794  162.7737 C.ar    1  UNL1        0.1200
      2 N         141.2123  140.1689  164.1812 N.ar    1  UNL1       -0.2309
      3 C         140.6692  141.2275  165.0947 C.ar    1  UNL1        0.0997
      4 C         140.2412  142.3922  164.2519 C.ar    1  UNL1        0.0961
      5 N         140.5197  142.0534  162.8174 N.ar    1  UNL1       -0.3123
      6 C         140.5714  141.1372  166.5888 C.ar    1  UNL1        0.0193
      7 C         139.6124  140.1723  167.2207 C.ar    1  UNL1        0.0038
      8 C         139.5145  140.0820  168.7147 C.ar    1  UNL1        0.0296
      9 C         140.3757  140.9566  169.5770 C.ar    1  UNL1        0.1440
     10 F         140.2779  140.8663  171.0710 F       1  UNL1       -0.2042
     11 C         141.3347  141.9215  168.9451 C.ar    1  UNL1        0.0988
     12 C         141.4326  142.0117  167.4510 C.ar    1  UNL1        0.0077
     13 C         142.1959  142.7960  169.8073 C.3     1  UNL1        0.4207
     14 F         143.0571  143.6706  170.6696 F       1  UNL1       -0.1658
     15 F         141.0871  143.8025  169.8939 F       1  UNL1       -0.1658
     16 F         143.3048  141.7896  169.7207 F       1  UNL1       -0.1658
     17 N         142.4156  138.4756  159.0704 N.pl3   1  UNL1       -0.2934
     18 C         140.9660  138.7972  159.2832 C.3     1  UNL1        0.0926
     19 C         140.5341  139.5317  160.5176 C.3     1  UNL1        0.0290
     20 C         141.5518  139.9448  161.5393 C.3     1  UNL1        0.0603
     21 C         143.0014  139.6232  161.3265 C.3     1  UNL1        0.0290
     22 C         143.4333  138.8886  160.0920 C.3     1  UNL1        0.0926
     23 C         143.3156  138.5056  156.6334 C.ar    1  UNL1        0.0406
     24 C         143.7475  137.7709  155.3990 C.ar    1  UNL1        0.1258
     25 N         144.2156  138.5355  154.1963 N.pl3   1  UNL1       -0.3428
     26 N         143.7112  136.2717  155.3672 N.ar    1  UNL1       -0.2097
     27 C         143.2431  135.5071  156.5698 C.ar    1  UNL1        0.2012
     28 N         142.8113  136.2417  157.8041 N.ar    1  UNL1       -0.2092
     29 C         142.8475  137.7410  157.8360 C.ar    1  UNL1        0.1320
     30 H         144.2394  139.5195  154.2172 H       1  UNL1        0.1437
     31 H         144.4990  138.0534  153.3861 H       1  UNL1        0.1437
     32 C         144.6006  140.7159  157.0951 C.3     1  UNL1        0.0052
     33 C         143.3518  140.0048  156.6652 C.3     1  UNL1        0.0320
     34 C         140.2461  142.9341  161.6344 C.3     1  UNL1        0.1245
     35 C         141.0606  144.1750  161.4188 C.3     1  UNL1        0.0969
     36 N         142.1417  144.5411  162.3920 N.3     1  UNL1       -0.2710
     37 C         142.2062  145.3598  163.6471 C.3     1  UNL1        0.0736
     38 C         143.6707  145.0588  163.7682 C.3     1  UNL1        0.0346
     39 C         143.6062  144.2401  162.5131 C.3     1  UNL1        0.0736
@<TRIPOS>BOND
     1    32    33    1
     2    33    23    1
     3    23    24   ar
     4    24    25    1
     5    24    26   ar
     6    26    27   ar
     7    27    28   ar
     8    28    29   ar
     9    29    17    1
    10    17    18    1
    11    18    19    1
    12    19    20    1
    13    20     1    1
    14     1     2   ar
    15     2     3   ar
    16     3     6    1
    17     6     7   ar
    18     7     8   ar
    19     8     9   ar
    20     9    10    1
    21     9    11   ar
    22    11    13    1
    23    13    14    1
    24    13    15    1
    25    13    16    1
    26    11    12   ar
    27     3     4   ar
    28     4     5   ar
    29     5    34    1
    30    34    35    1
    31    35    36    1
    32    36    37    1
    33    37    38    1
    34    38    39    1
    35    20    21    1
    36    21    22    1
    37    29    23   ar
    38    22    17    1
    39     5     1   ar
    40    39    36    1
    41    12     6   ar
    42    25    30    1
    43    25    31    1
