@<TRIPOS>MOLECULE
*****
 33 37 0 0 0
SMALL
GASTEIGER

@<TRIPOS>ATOM
      1 N         138.1307  140.2068  163.2759 N.3     1  UNL1       -0.2724
      2 C         137.9368  139.1946  162.1861 C.3     1  UNL1        0.0721
      3 C         138.7268  137.9196  162.1975 C.3     1  UNL1        0.0177
      4 C         139.7107  137.6567  163.2989 C.3     1  UNL1        0.0068
      5 C         140.6944  137.3938  164.4002 C.3     1  UNL1        0.0058
      6 C         139.9045  138.6689  164.3888 C.3     1  UNL1        0.0337
      7 C         139.1145  139.9440  164.3773 C.3     1  UNL1        0.0761
      8 C         140.5844  139.1015  165.6539 C.ar    1  UNL1       -0.0215
      9 C         142.0587  138.8840  165.8252 C.ar    1  UNL1       -0.0043
     10 C         142.7386  139.3166  167.0903 C.ar    1  UNL1       -0.0004
     11 C         141.9443  139.9667  168.1841 C.ar    1  UNL1        0.0038
     12 C         140.4701  140.1842  168.0129 C.ar    1  UNL1        0.0711
     13 C         139.7901  139.7516  166.7477 C.ar    1  UNL1       -0.0004
     14 C         139.6758  140.8344  169.1067 C.3     1  UNL1        0.4186
     15 F         138.8816  141.4845  170.2005 F       1  UNL1       -0.1659
     16 F         138.6463  139.7482  169.0047 F       1  UNL1       -0.1659
     17 F         140.7054  141.9205  169.2087 F       1  UNL1       -0.1659
     18 C         137.3407  141.4819  163.2645 C.3     1  UNL1        0.0730
     19 C         137.8620  142.6806  162.5286 C.3     1  UNL1        0.0294
     20 C         137.7221  144.0482  163.1285 C.3     1  UNL1        0.0666
     21 S         138.9195  144.7364  163.7139 S.3     1  UNL1       -0.0756
     22 C         142.1790  142.7098  164.2924 C.ar    1  UNL1        0.2029
     23 N         141.5583  142.6563  165.6570 N.ar    1  UNL1       -0.1250
     24 N         140.2618  143.4089  165.6064 N.ar    1  UNL1       -0.1220
     25 C         140.0811  143.9276  164.2105 C.ar    1  UNL1        0.1933
     26 N         141.2660  143.4955  163.3985 N.ar    1  UNL1       -0.2860
     27 C         141.4972  143.7963  161.9473 C.3     1  UNL1        0.1341
     28 C         142.5530  140.1635  162.2860 C.3     1  UNL1        0.0556
     29 C         143.6554  140.9166  162.9699 C.ar    1  UNL1        0.1001
     30 N         145.1233  140.6314  162.8515 N.ar    1  UNL1       -0.2085
     31 C         145.8585  141.6256  163.7006 C.ar    1  UNL1        0.2849
     32 O         144.8451  142.5252  164.3437 O.2     1  UNL1       -0.4283
     33 C         143.4835  142.0870  163.8921 C.ar    1  UNL1        0.1964
@<TRIPOS>BOND
     1    28    29    1
     2    29    30   ar
     3    30    31   ar
     4    31    32   ar
     5    32    33   ar
     6    33    22    1
     7    22    23   ar
     8    23    24   ar
     9    24    25   ar
    10    25    21    1
    11    21    20    1
    12    20    19    1
    13    19    18    1
    14    18     1    1
    15     1     2    1
    16     2     3    1
    17     3     4    1
    18     4     5    1
    19     5     6    1
    20     6     8    1
    21     8     9   ar
    22     9    10   ar
    23    10    11   ar
    24    11    12   ar
    25    12    14    1
    26    14    15    1
    27    14    16    1
    28    14    17    1
    29    12    13   ar
    30     6     7    1
    31    25    26   ar
    32    26    27    1
    33    33    29   ar
    34    26    22   ar
    35     7     1    1
    36     6     4    1
    37    13     8   ar
@<TRIPOS>MOLECULE
*****
 33 37 0 0 0
SMALL
GASTEIGER

@<TRIPOS>ATOM
      1 N         143.9676  142.1953  164.6032 N.3     1  UNL1       -0.2724
      2 C         144.2431  141.2717  163.4538 C.3     1  UNL1        0.0721
      3 C         143.9403  139.8080  163.5787 C.3     1  UNL1        0.0177
      4 C         143.3619  139.2678  164.8530 C.3     1  UNL1        0.0068
      5 C         142.7835  138.7276  166.1272 C.3     1  UNL1        0.0058
      6 C         143.0864  140.1914  166.0023 C.3     1  UNL1        0.0337
      7 C         143.3893  141.6552  165.8774 C.3     1  UNL1        0.0761
      8 C         142.5934  140.4127  167.4016 C.ar    1  UNL1       -0.0215
      9 C         142.5494  139.2689  168.3710 C.ar    1  UNL1       -0.0043
     10 C         142.0564  139.4902  169.7703 C.ar    1  UNL1       -0.0004
     11 C         141.6075  140.8554  170.2002 C.ar    1  UNL1        0.0038
     12 C         141.6515  141.9992  169.2308 C.ar    1  UNL1        0.0711
     13 C         142.1445  141.7779  167.8315 C.ar    1  UNL1       -0.0004
     14 C         141.2026  143.3644  169.6607 C.3     1  UNL1        0.4186
     15 F         140.7537  144.7295  170.0906 F       1  UNL1       -0.1659
     16 F         142.4893  143.5520  170.4085 F       1  UNL1       -0.1659
     17 F         139.9159  143.1767  168.9129 F       1  UNL1       -0.1659
     18 C         144.2705  143.6591  164.4783 C.3     1  UNL1        0.0730
     19 C         143.6386  144.4649  163.3822 C.3     1  UNL1        0.0294
     20 C         142.4583  145.3412  163.6805 C.3     1  UNL1        0.0666
     21 S         141.0719  144.8661  163.3609 S.3     1  UNL1       -0.0756
     22 C         139.7761  141.4369  164.6364 C.ar    1  UNL1        0.2029
     23 N         139.4377  142.3246  165.7973 N.ar    1  UNL1       -0.1250
     24 N         139.8820  143.7172  165.4608 N.ar    1  UNL1       -0.1220
     25 C         140.4948  143.6902  164.0920 C.ar    1  UNL1        0.1933
     26 N         140.4294  142.2809  163.5825 N.ar    1  UNL1       -0.2860
     27 C         140.9294  141.8001  162.2526 C.3     1  UNL1        0.1341
     28 C         139.0114  139.4692  167.1249 C.3     1  UNL1        0.0556
     29 C         139.1566  139.0594  165.6893 C.ar    1  UNL1        0.1001
     30 N         138.9759  137.6732  165.1455 N.ar    1  UNL1       -0.2085
     31 C         139.2156  137.7209  163.6656 C.ar    1  UNL1        0.2849
     32 O         139.5446  139.1366  163.2947 O.2     1  UNL1       -0.4283
     33 C         139.5081  139.9638  164.5455 C.ar    1  UNL1        0.1964
@<TRIPOS>BOND
     1    28    29    1
     2    29    30   ar
     3    30    31   ar
     4    31    32   ar
     5    32    33   ar
     6    33    22    1
     7    22    23   ar
     8    23    24   ar
     9    24    25   ar
    10    25    21    1
    11    21    20    1
    12    20    19    1
    13    19    18    1
    14    18     1    1
    15     1     2    1
    16     2     3    1
    17     3     4    1
    18     4     5    1
    19     5     6    1
    20     6     8    1
    21     8     9   ar
    22     9    10   ar
    23    10    11   ar
    24    11    12   ar
    25    12    14    1
    26    14    15    1
    27    14    16    1
    28    14    17    1
    29    12    13   ar
    30     6     7    1
    31    25    26   ar
    32    26    27    1
    33    33    29   ar
    34    26    22   ar
    35     7     1    1
    36     6     4    1
    37    13     8   ar
@<TRIPOS>MOLECULE
*****
 33 37 0 0 0
SMALL
GASTEIGER

@<TRIPOS>ATOM
      1 N         141.4546  138.5484  164.3616 N.3     1  UNL1       -0.2724
      2 C         140.4410  137.8928  163.4712 C.3     1  UNL1        0.0721
      3 C         138.9987  137.8504  163.8809 C.3     1  UNL1        0.0177
      4 C         138.5699  138.4636  165.1810 C.3     1  UNL1        0.0068
      5 C         138.1412  139.0768  166.4811 C.3     1  UNL1        0.0058
      6 C         139.5835  139.1192  166.0714 C.3     1  UNL1        0.0337
      7 C         141.0259  139.1616  165.6616 C.3     1  UNL1        0.0761
      8 C         139.9212  139.8517  167.3360 C.ar    1  UNL1       -0.0215
      9 C         138.9377  139.8865  168.4681 C.ar    1  UNL1       -0.0043
     10 C         139.2754  140.6190  169.7328 C.ar    1  UNL1       -0.0004
     11 C         140.5965  141.3168  169.8654 C.ar    1  UNL1        0.0038
     12 C         141.5800  141.2821  168.7333 C.ar    1  UNL1        0.0711
     13 C         141.2424  140.5496  167.4686 C.ar    1  UNL1       -0.0004
     14 C         142.9012  141.9800  168.8660 C.3     1  UNL1        0.4186
     15 F         144.2223  142.6778  168.9986 F       1  UNL1       -0.1659
     16 F         143.1551  141.7774  167.4016 F       1  UNL1       -0.1659
     17 F         142.6472  142.1825  170.3304 F       1  UNL1       -0.1659
     18 C         142.8969  138.5909  163.9519 C.3     1  UNL1        0.0730
     19 C         143.9167  139.2113  164.8603 C.3     1  UNL1        0.0294
     20 C         145.2360  139.6639  164.3086 C.3     1  UNL1        0.0666
     21 S         145.3214  140.9349  163.5165 S.3     1  UNL1       -0.0756
     22 C         142.5449  143.6289  163.8314 C.ar    1  UNL1        0.2029
     23 N         143.5150  144.0886  164.8791 N.ar    1  UNL1       -0.1250
     24 N         144.6731  143.1354  164.8887 N.ar    1  UNL1       -0.1220
     25 C         144.4188  142.0866  163.8469 C.ar    1  UNL1        0.1933
     26 N         143.1035  142.3916  163.1935 N.ar    1  UNL1       -0.2860
     27 C         142.4598  141.5985  162.0951 C.3     1  UNL1        0.1341
     28 C         139.6849  143.1436  165.3261 C.3     1  UNL1        0.0556
     29 C         139.9299  144.0673  164.1699 C.ar    1  UNL1        0.1001
     30 N         138.9034  144.9301  163.4978 N.ar    1  UNL1       -0.2085
     31 C         139.5836  145.6864  162.3954 C.ar    1  UNL1        0.2849
     32 O         141.0305  145.2911  162.3862 O.2     1  UNL1       -0.4283
     33 C         141.2445  144.2904  163.4829 C.ar    1  UNL1        0.1964
@<TRIPOS>BOND
     1    28    29    1
     2    29    30   ar
     3    30    31   ar
     4    31    32   ar
     5    32    33   ar
     6    33    22    1
     7    22    23   ar
     8    23    24   ar
     9    24    25   ar
    10    25    21    1
    11    21    20    1
    12    20    19    1
    13    19    18    1
    14    18     1    1
    15     1     2    1
    16     2     3    1
    17     3     4    1
    18     4     5    1
    19     5     6    1
    20     6     8    1
    21     8     9   ar
    22     9    10   ar
    23    10    11   ar
    24    11    12   ar
    25    12    14    1
    26    14    15    1
    27    14    16    1
    28    14    17    1
    29    12    13   ar
    30     6     7    1
    31    25    26   ar
    32    26    27    1
    33    33    29   ar
    34    26    22   ar
    35     7     1    1
    36     6     4    1
    37    13     8   ar
@<TRIPOS>MOLECULE
*****
 33 37 0 0 0
SMALL
GASTEIGER

@<TRIPOS>ATOM
      1 N         138.1907  141.4726  162.7772 N.3     1  UNL1       -0.2724
      2 C         137.8960  142.7554  162.0577 C.3     1  UNL1        0.0721
      3 C         138.1853  144.0700  162.7196 C.3     1  UNL1        0.0177
      4 C         138.7693  144.1018  164.1009 C.3     1  UNL1        0.0068
      5 C         139.3532  144.1336  165.4822 C.3     1  UNL1        0.0058
      6 C         139.0639  142.8190  164.8204 C.3     1  UNL1        0.0337
      7 C         138.7746  141.5044  164.1585 C.3     1  UNL1        0.0761
      8 C         139.5711  142.0968  166.0332 C.ar    1  UNL1       -0.0215
      9 C         139.2428  140.6471  166.2349 C.ar    1  UNL1       -0.0043
     10 C         139.7500  139.9249  167.4477 C.ar    1  UNL1       -0.0004
     11 C         140.5856  140.6523  168.4590 C.ar    1  UNL1        0.0038
     12 C         140.9140  142.1019  168.2574 C.ar    1  UNL1        0.0711
     13 C         140.4068  142.8242  167.0445 C.ar    1  UNL1       -0.0004
     14 C         141.7496  142.8293  169.2686 C.3     1  UNL1        0.4186
     15 F         142.5853  143.5567  170.2799 F       1  UNL1       -0.1659
     16 F         142.8408  141.8145  169.0970 F       1  UNL1       -0.1659
     17 F         140.6585  143.8442  169.4402 F       1  UNL1       -0.1659
     18 C         137.9014  140.1580  162.1154 C.3     1  UNL1        0.0730
     19 C         138.3168  138.8775  162.7773 C.3     1  UNL1        0.0294
     20 C         139.2063  137.9123  162.0514 C.3     1  UNL1        0.0666
     21 S         140.6409  137.7602  162.4621 S.3     1  UNL1       -0.0756
     22 C         142.4103  141.0533  163.5065 C.ar    1  UNL1        0.2029
     23 N         142.5064  140.2578  164.7746 N.ar    1  UNL1       -0.1250
     24 N         141.8553  138.9274  164.5377 N.ar    1  UNL1       -0.1220
     25 C         141.3568  138.9006  163.1232 C.ar    1  UNL1        0.1933
     26 N         141.6998  140.2145  162.4859 N.ar    1  UNL1       -0.2860
     27 C         141.3872  140.6186  161.0756 C.3     1  UNL1        0.1341
     28 C         145.5444  141.8913  163.1547 C.3     1  UNL1        0.0556
     29 C         144.3735  142.8286  163.1343 C.ar    1  UNL1        0.1001
     30 N         144.4376  144.3157  162.9486 N.ar    1  UNL1       -0.2085
     31 C         143.0366  144.8495  162.9955 C.ar    1  UNL1        0.2849
     32 O         142.1066  143.6924  163.2102 O.2     1  UNL1       -0.4283
     33 C         142.9329  142.4434  163.2960 C.ar    1  UNL1        0.1964
@<TRIPOS>BOND
     1    28    29    1
     2    29    30   ar
     3    30    31   ar
     4    31    32   ar
     5    32    33   ar
     6    33    22    1
     7    22    23   ar
     8    23    24   ar
     9    24    25   ar
    10    25    21    1
    11    21    20    1
    12    20    19    1
    13    19    18    1
    14    18     1    1
    15     1     2    1
    16     2     3    1
    17     3     4    1
    18     4     5    1
    19     5     6    1
    20     6     8    1
    21     8     9   ar
    22     9    10   ar
    23    10    11   ar
    24    11    12   ar
    25    12    14    1
    26    14    15    1
    27    14    16    1
    28    14    17    1
    29    12    13   ar
    30     6     7    1
    31    25    26   ar
    32    26    27    1
    33    33    29   ar
    34    26    22   ar
    35     7     1    1
    36     6     4    1
    37    13     8   ar
@<TRIPOS>MOLECULE
*****
 33 37 0 0 0
SMALL
GASTEIGER

@<TRIPOS>ATOM
      1 N         141.1504  138.5905  162.9454 N.3     1  UNL1       -0.2724
      2 C         141.0055  137.3869  163.8288 C.3     1  UNL1        0.0721
      3 C         139.9520  137.3625  164.8962 C.3     1  UNL1        0.0177
      4 C         139.0433  138.5417  165.0803 C.3     1  UNL1        0.0068
      5 C         138.1347  139.7209  165.2644 C.3     1  UNL1        0.0058
      6 C         139.1882  139.7453  164.1970 C.3     1  UNL1        0.0337
      7 C         140.2418  139.7697  163.1295 C.3     1  UNL1        0.0761
      8 C         138.7473  141.1210  163.7933 C.ar    1  UNL1       -0.0215
      9 C         138.3232  141.3880  162.3794 C.ar    1  UNL1       -0.0043
     10 C         137.8823  142.7637  161.9758 C.ar    1  UNL1       -0.0004
     11 C         137.8654  143.8725  162.9859 C.ar    1  UNL1        0.0038
     12 C         138.2895  143.6055  164.3997 C.ar    1  UNL1        0.0711
     13 C         138.7305  142.2298  164.8034 C.ar    1  UNL1       -0.0004
     14 C         138.2727  144.7143  165.4098 C.3     1  UNL1        0.4186
     15 F         138.2558  145.8231  166.4199 F       1  UNL1       -0.1659
     16 F         136.7787  144.6123  165.4969 F       1  UNL1       -0.1659
     17 F         139.7666  144.8164  165.3227 F       1  UNL1       -0.1659
     18 C         142.2040  138.6150  161.8780 C.3     1  UNL1        0.0730
     19 C         143.6294  138.3005  162.2237 C.3     1  UNL1        0.0294
     20 C         144.4517  139.2933  162.9904 C.3     1  UNL1        0.0666
     21 S         143.7865  140.2410  163.9439 S.3     1  UNL1       -0.0756
     22 C         142.6405  139.7713  167.6225 C.ar    1  UNL1        0.2029
     23 N         143.3774  138.4870  167.3822 N.ar    1  UNL1       -0.1250
     24 N         143.8963  138.5067  165.9749 N.ar    1  UNL1       -0.1220
     25 C         143.4802  139.8031  165.3455 C.ar    1  UNL1        0.1933
     26 N         142.7041  140.5847  166.3637 N.ar    1  UNL1       -0.2860
     27 C         142.0980  141.9414  166.1592 C.3     1  UNL1        0.1341
     28 C         143.6208  142.1208  169.6641 C.3     1  UNL1        0.0556
     29 C         142.4102  141.2518  169.8360 C.ar    1  UNL1        0.1001
     30 N         141.4377  141.3103  170.9766 N.ar    1  UNL1       -0.2085
     31 C         140.3862  140.2664  170.7430 C.ar    1  UNL1        0.2849
     32 O         140.7087  139.5629  169.4581 O.2     1  UNL1       -0.4283
     33 C         141.9596  140.1719  168.8976 C.ar    1  UNL1        0.1964
@<TRIPOS>BOND
     1    28    29    1
     2    29    30   ar
     3    30    31   ar
     4    31    32   ar
     5    32    33   ar
     6    33    22    1
     7    22    23   ar
     8    23    24   ar
     9    24    25   ar
    10    25    21    1
    11    21    20    1
    12    20    19    1
    13    19    18    1
    14    18     1    1
    15     1     2    1
    16     2     3    1
    17     3     4    1
    18     4     5    1
    19     5     6    1
    20     6     8    1
    21     8     9   ar
    22     9    10   ar
    23    10    11   ar
    24    11    12   ar
    25    12    14    1
    26    14    15    1
    27    14    16    1
    28    14    17    1
    29    12    13   ar
    30     6     7    1
    31    25    26   ar
    32    26    27    1
    33    33    29   ar
    34    26    22   ar
    35     7     1    1
    36     6     4    1
    37    13     8   ar
@<TRIPOS>MOLECULE
*****
 33 37 0 0 0
SMALL
GASTEIGER

@<TRIPOS>ATOM
      1 N         137.9846  140.4719  162.9548 N.3     1  UNL1       -0.2724
      2 C         137.9964  139.3761  161.9306 C.3     1  UNL1        0.0721
      3 C         138.4907  138.0091  162.3004 C.3     1  UNL1        0.0177
      4 C         138.9733  137.7378  163.6946 C.3     1  UNL1        0.0068
      5 C         139.4558  137.4666  165.0887 C.3     1  UNL1        0.0058
      6 C         138.9615  138.8336  164.7188 C.3     1  UNL1        0.0337
      7 C         138.4671  140.2007  164.3489 C.3     1  UNL1        0.0761
      8 C         139.2333  139.3096  166.1151 C.ar    1  UNL1       -0.0215
      9 C         138.2213  139.0760  167.1975 C.ar    1  UNL1       -0.0043
     10 C         138.4931  139.5520  168.5937 C.ar    1  UNL1       -0.0004
     11 C         139.7768  140.2617  168.9076 C.ar    1  UNL1        0.0038
     12 C         140.7887  140.4954  167.8253 C.ar    1  UNL1        0.0711
     13 C         140.5169  140.0193  166.4290 C.ar    1  UNL1       -0.0004
     14 C         142.0724  141.2050  168.1392 C.3     1  UNL1        0.4186
     15 F         143.3560  141.9147  168.4531 F       1  UNL1       -0.1659
     16 F         141.3496  142.5193  168.1234 F       1  UNL1       -0.1659
     17 F         142.7951  139.8907  168.1550 F       1  UNL1       -0.1659
     18 C         137.4902  141.8389  162.5850 C.3     1  UNL1        0.0730
     19 C         137.7065  142.9928  163.5188 C.3     1  UNL1        0.0294
     20 C         137.8234  144.3858  162.9751 C.3     1  UNL1        0.0666
     21 S         139.1381  145.1057  163.0333 S.3     1  UNL1       -0.0756
     22 C         142.4261  143.0999  162.5525 C.ar    1  UNL1        0.2029
     23 N         142.2051  143.6307  161.1670 N.ar    1  UNL1       -0.1250
     24 N         140.9466  144.4466  161.1785 N.ar    1  UNL1       -0.1220
     25 C         140.3897  144.4202  162.5710 C.ar    1  UNL1        0.1933
     26 N         141.3041  143.5878  163.4202 N.ar    1  UNL1       -0.2860
     27 C         141.1275  143.2949  164.8806 C.3     1  UNL1        0.1341
     28 C         142.2727  139.9042  163.1953 C.3     1  UNL1        0.0556
     29 C         143.4980  140.7644  163.2883 C.ar    1  UNL1        0.1001
     30 N         144.8679  140.3067  163.6932 N.ar    1  UNL1       -0.2085
     31 C         145.7850  141.4928  163.6479 C.ar    1  UNL1        0.2849
     32 O         144.9820  142.6835  163.2151 O.2     1  UNL1       -0.4283
     33 C         143.5685  142.2333  162.9929 C.ar    1  UNL1        0.1964
@<TRIPOS>BOND
     1    28    29    1
     2    29    30   ar
     3    30    31   ar
     4    31    32   ar
     5    32    33   ar
     6    33    22    1
     7    22    23   ar
     8    23    24   ar
     9    24    25   ar
    10    25    21    1
    11    21    20    1
    12    20    19    1
    13    19    18    1
    14    18     1    1
    15     1     2    1
    16     2     3    1
    17     3     4    1
    18     4     5    1
    19     5     6    1
    20     6     8    1
    21     8     9   ar
    22     9    10   ar
    23    10    11   ar
    24    11    12   ar
    25    12    14    1
    26    14    15    1
    27    14    16    1
    28    14    17    1
    29    12    13   ar
    30     6     7    1
    31    25    26   ar
    32    26    27    1
    33    33    29   ar
    34    26    22   ar
    35     7     1    1
    36     6     4    1
    37    13     8   ar
@<TRIPOS>MOLECULE
*****
 33 37 0 0 0
SMALL
GASTEIGER

@<TRIPOS>ATOM
      1 N         140.3711  144.4984  164.3464 N.3     1  UNL1       -0.2724
      2 C         141.3922  145.1948  163.4965 C.3     1  UNL1        0.0721
      3 C         142.8373  144.8035  163.5884 C.3     1  UNL1        0.0177
      4 C         143.2614  143.7158  164.5303 C.3     1  UNL1        0.0068
      5 C         143.6854  142.6281  165.4722 C.3     1  UNL1        0.0058
      6 C         142.2403  143.0194  165.3802 C.3     1  UNL1        0.0337
      7 C         140.7951  143.4108  165.2883 C.3     1  UNL1        0.0761
      8 C         141.8956  141.9894  166.4147 C.ar    1  UNL1       -0.0215
      9 C         142.8613  141.6858  167.5217 C.ar    1  UNL1       -0.0043
     10 C         142.5166  140.6558  168.5562 C.ar    1  UNL1       -0.0004
     11 C         141.2062  139.9293  168.4838 C.ar    1  UNL1        0.0038
     12 C         140.2406  140.2329  167.3769 C.ar    1  UNL1        0.0711
     13 C         140.5853  141.2630  166.3423 C.ar    1  UNL1       -0.0004
     14 C         138.9302  139.5065  167.3045 C.3     1  UNL1        0.4186
     15 F         137.6199  138.7800  167.2321 F       1  UNL1       -0.1659
     16 F         139.1681  139.2223  165.8510 F       1  UNL1       -0.1659
     17 F         138.6924  139.7906  168.7580 F       1  UNL1       -0.1659
     18 C         138.9260  144.8897  164.2545 C.3     1  UNL1        0.0730
     19 C         137.9741  144.0594  163.4454 C.3     1  UNL1        0.0294
     20 C         137.6958  142.6392  163.8397 C.3     1  UNL1        0.0666
     21 S         137.4239  141.6077  162.7852 S.3     1  UNL1       -0.0756
     22 C         140.2871  139.0392  162.2650 C.ar    1  UNL1        0.2029
     23 N         139.1452  138.1328  162.6181 N.ar    1  UNL1       -0.1250
     24 N         137.9337  138.9846  162.8559 N.ar    1  UNL1       -0.1220
     25 C         138.3268  140.4174  162.6499 C.ar    1  UNL1        0.1933
     26 N         139.7813  140.4511  162.2847 N.ar    1  UNL1       -0.2860
     27 C         140.5883  141.6809  161.9907 C.3     1  UNL1        0.1341
     28 C         142.8121  139.0541  164.3323 C.3     1  UNL1        0.0556
     29 C         142.8493  138.6159  162.8982 C.ar    1  UNL1        0.1001
     30 N         144.0537  138.1077  162.1625 N.ar    1  UNL1       -0.2085
     31 C         143.6374  137.7867  160.7577 C.ar    1  UNL1        0.2849
     32 O         142.1758  138.0966  160.6251 O.2     1  UNL1       -0.4283
     33 C         141.6887  138.6091  161.9480 C.ar    1  UNL1        0.1964
@<TRIPOS>BOND
     1    28    29    1
     2    29    30   ar
     3    30    31   ar
     4    31    32   ar
     5    32    33   ar
     6    33    22    1
     7    22    23   ar
     8    23    24   ar
     9    24    25   ar
    10    25    21    1
    11    21    20    1
    12    20    19    1
    13    19    18    1
    14    18     1    1
    15     1     2    1
    16     2     3    1
    17     3     4    1
    18     4     5    1
    19     5     6    1
    20     6     8    1
    21     8     9   ar
    22     9    10   ar
    23    10    11   ar
    24    11    12   ar
    25    12    14    1
    26    14    15    1
    27    14    16    1
    28    14    17    1
    29    12    13   ar
    30     6     7    1
    31    25    26   ar
    32    26    27    1
    33    33    29   ar
    34    26    22   ar
    35     7     1    1
    36     6     4    1
    37    13     8   ar
@<TRIPOS>MOLECULE
*****
 33 37 0 0 0
SMALL
GASTEIGER

@<TRIPOS>ATOM
      1 N         140.1015  143.3280  162.3913 N.3     1  UNL1       -0.2724
      2 C         139.7757  144.7908  162.4530 C.3     1  UNL1        0.0721
      3 C         140.7913  145.7642  162.9736 C.3     1  UNL1        0.0177
      4 C         142.1330  145.2746  163.4324 C.3     1  UNL1        0.0068
      5 C         143.4745  144.7850  163.8912 C.3     1  UNL1        0.0058
      6 C         142.4588  143.8117  163.3707 C.3     1  UNL1        0.0337
      7 C         141.4431  142.8384  162.8501 C.3     1  UNL1        0.0761
      8 C         143.4215  142.6845  163.5999 C.ar    1  UNL1       -0.0215
      9 C         144.8584  142.8312  163.1949 C.ar    1  UNL1       -0.0043
     10 C         145.8211  141.7040  163.4241 C.ar    1  UNL1       -0.0004
     11 C         145.3470  140.4301  164.0584 C.ar    1  UNL1        0.0038
     12 C         143.9102  140.2833  164.4634 C.ar    1  UNL1        0.0711
     13 C         142.9474  141.4106  164.2342 C.ar    1  UNL1       -0.0004
     14 C         143.4361  139.0094  165.0976 C.3     1  UNL1        0.4186
     15 F         142.9621  137.7354  165.7319 F       1  UNL1       -0.1659
     16 F         142.0237  139.3488  164.7237 F       1  UNL1       -0.1659
     17 F         144.8486  138.6699  165.4715 F       1  UNL1       -0.1659
     18 C         139.0858  142.3547  161.8707 C.3     1  UNL1        0.0730
     19 C         137.7199  142.2941  162.4878 C.3     1  UNL1        0.0294
     20 C         137.5108  141.5535  163.7754 C.3     1  UNL1        0.0666
     21 S         138.4482  140.4498  164.1665 S.3     1  UNL1       -0.0756
     22 C         139.3633  140.0709  167.9195 C.ar    1  UNL1        0.2029
     23 N         138.3677  138.9617  167.7504 N.ar    1  UNL1       -0.1250
     24 N         137.9037  138.9687  166.3240 N.ar    1  UNL1       -0.1220
     25 C         138.6126  140.0821  165.6114 C.ar    1  UNL1        0.1933
     26 N         139.5146  140.7633  166.5975 N.ar    1  UNL1       -0.2860
     27 C         140.4107  141.9318  166.3117 C.3     1  UNL1        0.1341
     28 C         142.4995  139.4600  168.5829 C.3     1  UNL1        0.0556
     29 C         141.5230  140.1446  169.4927 C.ar    1  UNL1        0.1001
     30 N         141.8166  140.6686  170.8672 N.ar    1  UNL1       -0.2085
     31 C         140.5565  141.2733  171.4117 C.ar    1  UNL1        0.2849
     32 O         139.4841  141.1230  170.3737 O.2     1  UNL1       -0.4283
     33 C         140.0814  140.4254  169.1877 C.ar    1  UNL1        0.1964
@<TRIPOS>BOND
     1    28    29    1
     2    29    30   ar
     3    30    31   ar
     4    31    32   ar
     5    32    33   ar
     6    33    22    1
     7    22    23   ar
     8    23    24   ar
     9    24    25   ar
    10    25    21    1
    11    21    20    1
    12    20    19    1
    13    19    18    1
    14    18     1    1
    15     1     2    1
    16     2     3    1
    17     3     4    1
    18     4     5    1
    19     5     6    1
    20     6     8    1
    21     8     9   ar
    22     9    10   ar
    23    10    11   ar
    24    11    12   ar
    25    12    14    1
    26    14    15    1
    27    14    16    1
    28    14    17    1
    29    12    13   ar
    30     6     7    1
    31    25    26   ar
    32    26    27    1
    33    33    29   ar
    34    26    22   ar
    35     7     1    1
    36     6     4    1
    37    13     8   ar
@<TRIPOS>MOLECULE
*****
 33 37 0 0 0
SMALL
GASTEIGER

@<TRIPOS>ATOM
      1 N         143.9055  142.5703  164.3669 N.3     1  UNL1       -0.2724
      2 C         145.1616  141.8077  164.0658 C.3     1  UNL1        0.0721
      3 C         145.1253  140.3114  163.9678 C.3     1  UNL1        0.0177
      4 C         143.8328  139.5776  164.1710 C.3     1  UNL1        0.0068
      5 C         142.5405  138.8438  164.3742 C.3     1  UNL1        0.0058
      6 C         142.5768  140.3402  164.4721 C.3     1  UNL1        0.0337
      7 C         142.6131  141.8366  164.5701 C.3     1  UNL1        0.0761
      8 C         141.1054  140.3568  164.7633 C.ar    1  UNL1       -0.0215
      9 C         140.3058  141.6015  164.5155 C.ar    1  UNL1       -0.0043
     10 C         138.8345  141.6182  164.8066 C.ar    1  UNL1       -0.0004
     11 C         138.1626  140.3901  165.3456 C.ar    1  UNL1        0.0038
     12 C         138.9621  139.1454  165.5934 C.ar    1  UNL1        0.0711
     13 C         140.4336  139.1287  165.3022 C.ar    1  UNL1       -0.0004
     14 C         138.2903  137.9173  166.1323 C.3     1  UNL1        0.4186
     15 F         137.6185  136.6892  166.6713 F       1  UNL1       -0.1659
     16 F         137.3459  138.7785  166.9174 F       1  UNL1       -0.1659
     17 F         139.2348  137.0561  165.3473 F       1  UNL1       -0.1659
     18 C         143.9418  144.0666  164.4648 C.3     1  UNL1        0.0730
     19 C         143.1136  144.8997  163.5319 C.3     1  UNL1        0.0294
     20 C         141.6609  145.1329  163.8238 C.3     1  UNL1        0.0666
     21 S         140.7234  145.5058  162.7139 S.3     1  UNL1       -0.0756
     22 C         138.9646  142.5911  160.8492 C.ar    1  UNL1        0.2029
     23 N         137.8163  143.1816  161.6127 N.ar    1  UNL1       -0.1250
     24 N         138.3354  144.3453  162.4041 N.ar    1  UNL1       -0.1220
     25 C         139.8044  144.4741  162.1298 C.ar    1  UNL1        0.1933
     26 N         140.1933  143.3899  161.1688 N.ar    1  UNL1       -0.2860
     27 C         141.5693  143.1472  160.6232 C.3     1  UNL1        0.1341
     28 C         138.7319  139.4645  161.7541 C.3     1  UNL1        0.0556
     29 C         138.7891  139.9723  160.3439 C.ar    1  UNL1        0.1001
     30 N         138.7495  139.1320  159.1019 N.ar    1  UNL1       -0.2085
     31 C         138.8319  140.0499  157.9184 C.ar    1  UNL1        0.2849
     32 O         138.9225  141.4574  158.4289 O.2     1  UNL1       -0.4283
     33 C         138.8961  141.4094  159.9279 C.ar    1  UNL1        0.1964
@<TRIPOS>BOND
     1    28    29    1
     2    29    30   ar
     3    30    31   ar
     4    31    32   ar
     5    32    33   ar
     6    33    22    1
     7    22    23   ar
     8    23    24   ar
     9    24    25   ar
    10    25    21    1
    11    21    20    1
    12    20    19    1
    13    19    18    1
    14    18     1    1
    15     1     2    1
    16     2     3    1
    17     3     4    1
    18     4     5    1
    19     5     6    1
    20     6     8    1
    21     8     9   ar
    22     9    10   ar
    23    10    11   ar
    24    11    12   ar
    25    12    14    1
    26    14    15    1
    27    14    16    1
    28    14    17    1
    29    12    13   ar
    30     6     7    1
    31    25    26   ar
    32    26    27    1
    33    33    29   ar
    34    26    22   ar
    35     7     1    1
    36     6     4    1
    37    13     8   ar
