@<TRIPOS>MOLECULE
*****
 29 34 0 0 0
SMALL
GASTEIGER

@<TRIPOS>ATOM
      1 C         141.9323  140.0997  166.2839 C.2     1  UNL1        0.0770
      2 N         142.7716  139.8514  167.5021 N.2     1  UNL1       -0.2460
      3 C         142.4546  140.9175  168.5085 C.2     1  UNL1        0.0773
      4 C         142.9749  141.1795  169.8908 C.2     1  UNL1        0.0185
      5 C         142.4600  142.3486  170.6769 C.2     1  UNL1       -0.0027
      6 C         141.4248  143.2558  170.0807 C.2     1  UNL1       -0.0213
      7 C         140.9045  142.9939  168.6985 C.3     1  UNL1        0.0536
      8 C         141.4195  141.8247  167.9124 C.2     1  UNL1       -0.0027
      9 C         141.0966  141.3192  166.5375 C.2     1  UNL1       -0.0069
     10 C         140.1112  141.9267  165.5837 C.3     1  UNL1        0.0268
     11 C         139.7325  143.3722  165.7160 C.3     1  UNL1        0.0242
     12 C         138.7470  143.9797  164.7622 C.3     1  UNL1        0.0731
     13 C         137.7690  144.1501  163.6376 C.3     1  UNL1        0.0214
     14 C         137.6373  142.8318  162.9342 C.3     1  UNL1        0.0214
     15 C         138.5338  141.8467  163.6239 C.3     1  UNL1        0.0731
     16 C         139.5043  141.0890  164.4975 C.3     1  UNL1        0.0242
     17 N         139.2197  142.5561  164.7537 N.pl3   1  UNL1       -0.3107
     18 C         140.2051  141.9486  165.7075 C.ar    1  UNL1        0.0477
     19 C         139.7513  140.9208  166.7014 C.ar    1  UNL1        0.0145
     20 C         140.7367  140.3134  167.6551 C.ar    1  UNL1        0.0013
     21 C         142.1761  140.7336  167.6151 C.ar    1  UNL1        0.0001
     22 C         142.6300  141.7613  166.6213 C.ar    1  UNL1        0.0013
     23 C         141.6445  142.3688  165.6675 C.ar    1  UNL1        0.0145
     24 C         141.9230  137.6209  162.5281 C.ar    1  UNL1        0.0000
     25 C         142.7399  138.8772  162.5957 C.ar    1  UNL1        0.0000
     26 C         142.7430  139.7034  163.8476 C.ar    1  UNL1        0.0015
     27 C         141.9292  139.2734  165.0320 C.ar    1  UNL1        0.0173
     28 C         141.1123  138.0172  164.9645 C.ar    1  UNL1        0.0015
     29 C         141.1092  137.1910  163.7125 C.ar    1  UNL1        0.0000
@<TRIPOS>BOND
     1    24    25   ar
     2    25    26   ar
     3    26    27   ar
     4    27     1    1
     5     1     2    2
     6     2     3    1
     7     3     4    2
     8     4     5    1
     9     5     6    2
    10     6     7    1
    11     7     8    1
    12     8     9    2
    13     9    10    1
    14    10    11    1
    15    11    12    1
    16    12    13    1
    17    13    14    1
    18    14    15    1
    19    15    16    1
    20    15    17    1
    21    17    18    1
    22    18    19   ar
    23    19    20   ar
    24    20    21   ar
    25    21    22   ar
    26    22    23   ar
    27    27    28   ar
    28    28    29   ar
    29    29    24   ar
    30     9     1    1
    31    16    10    1
    32    23    18   ar
    33     8     3    1
    34    17    12    1
@<TRIPOS>MOLECULE
*****
 29 34 0 0 0
SMALL
GASTEIGER

@<TRIPOS>ATOM
      1 C         142.6822  141.6105  166.3501 C.2     1  UNL1        0.0770
      2 N         142.9288  142.2368  167.6906 N.2     1  UNL1       -0.2460
      3 C         141.8020  141.8449  168.5998 C.2     1  UNL1        0.0773
      4 C         141.5128  142.1667  170.0360 C.2     1  UNL1        0.0185
      5 C         140.2806  141.6200  170.6937 C.2     1  UNL1       -0.0027
      6 C         139.3375  140.7514  169.9151 C.2     1  UNL1       -0.0213
      7 C         139.6266  140.4296  168.4789 C.3     1  UNL1        0.0536
      8 C         140.8589  140.9764  167.8212 C.2     1  UNL1       -0.0027
      9 C         141.4029  140.8315  166.4309 C.2     1  UNL1       -0.0069
     10 C         140.7774  140.0456  165.3168 C.3     1  UNL1        0.0268
     11 C         139.8901  138.8772  165.6294 C.3     1  UNL1        0.0242
     12 C         139.2645  138.0913  164.5154 C.3     1  UNL1        0.0731
     13 C         138.8746  137.6205  163.1456 C.3     1  UNL1        0.0214
     14 C         139.5380  138.5159  162.1415 C.3     1  UNL1        0.0214
     15 C         140.3379  139.5400  162.8907 C.3     1  UNL1        0.0731
     16 C         141.0390  140.4280  163.8903 C.3     1  UNL1        0.0242
     17 N         140.1689  139.2776  164.3579 N.pl3   1  UNL1       -0.3107
     18 C         140.7944  140.0635  165.4718 C.ar    1  UNL1        0.0477
     19 C         141.7979  139.4129  166.3774 C.ar    1  UNL1        0.0145
     20 C         142.4234  140.1988  167.4913 C.ar    1  UNL1        0.0013
     21 C         142.0455  141.6354  167.6999 C.ar    1  UNL1        0.0001
     22 C         141.0421  142.2861  166.7945 C.ar    1  UNL1        0.0013
     23 C         140.4166  141.5001  165.6804 C.ar    1  UNL1        0.0145
     24 C         145.3174  142.0001  162.7233 C.ar    1  UNL1        0.0000
     25 C         144.4327  143.1399  163.1335 C.ar    1  UNL1        0.0000
     26 C         143.5543  143.0100  164.3425 C.ar    1  UNL1        0.0015
     27 C         143.5606  141.7404  165.1412 C.ar    1  UNL1        0.0173
     28 C         144.4453  140.6007  164.7310 C.ar    1  UNL1        0.0015
     29 C         145.3237  140.7306  163.5221 C.ar    1  UNL1        0.0000
@<TRIPOS>BOND
     1    24    25   ar
     2    25    26   ar
     3    26    27   ar
     4    27     1    1
     5     1     2    2
     6     2     3    1
     7     3     4    2
     8     4     5    1
     9     5     6    2
    10     6     7    1
    11     7     8    1
    12     8     9    2
    13     9    10    1
    14    10    11    1
    15    11    12    1
    16    12    13    1
    17    13    14    1
    18    14    15    1
    19    15    16    1
    20    15    17    1
    21    17    18    1
    22    18    19   ar
    23    19    20   ar
    24    20    21   ar
    25    21    22   ar
    26    22    23   ar
    27    27    28   ar
    28    28    29   ar
    29    29    24   ar
    30     9     1    1
    31    16    10    1
    32    23    18   ar
    33     8     3    1
    34    17    12    1
@<TRIPOS>MOLECULE
*****
 29 34 0 0 0
SMALL
GASTEIGER

@<TRIPOS>ATOM
      1 C         140.3192  140.4307  166.6152 C.2     1  UNL1        0.0770
      2 N         139.6715  140.5628  167.9617 N.2     1  UNL1       -0.2460
      3 C         140.6374  141.2582  168.8746 C.2     1  UNL1        0.0773
      4 C         140.5444  141.6588  170.3170 C.2     1  UNL1        0.0185
      5 C         141.6961  142.3571  170.9772 C.2     1  UNL1       -0.0027
      6 C         142.9408  142.6548  170.1950 C.2     1  UNL1       -0.0213
      7 C         143.0339  142.2542  168.7525 C.3     1  UNL1        0.0536
      8 C         141.8822  141.5559  168.0923 C.2     1  UNL1       -0.0027
      9 C         141.6855  141.0444  166.6959 C.2     1  UNL1       -0.0069
     10 C         142.6805  141.1315  165.5768 C.3     1  UNL1        0.0268
     11 C         143.7117  142.2209  165.5731 C.3     1  UNL1        0.0242
     12 C         144.7067  142.3080  164.4540 C.3     1  UNL1        0.0731
     13 C         145.4626  142.0176  163.1913 C.3     1  UNL1        0.0214
     14 C         144.8464  140.8100  162.5495 C.3     1  UNL1        0.0214
     15 C         143.7096  140.3539  163.4155 C.3     1  UNL1        0.0731
     16 C         142.6444  140.1293  164.4615 C.3     1  UNL1        0.0242
     17 N         143.6233  141.2798  164.5926 N.pl3   1  UNL1       -0.3107
     18 C         142.6284  141.1927  165.7116 C.ar    1  UNL1        0.0477
     19 C         142.6551  140.0225  166.6497 C.ar    1  UNL1        0.0145
     20 C         141.6602  139.9354  167.7688 C.ar    1  UNL1        0.0013
     21 C         140.6383  141.0186  167.9499 C.ar    1  UNL1        0.0001
     22 C         140.6115  142.1888  167.0118 C.ar    1  UNL1        0.0013
     23 C         141.6066  142.2758  165.8927 C.ar    1  UNL1        0.0145
     24 C         138.4856  138.5272  162.9732 C.ar    1  UNL1        0.0000
     25 C         139.1890  137.6777  163.9897 C.ar    1  UNL1        0.0000
     26 C         139.8002  138.3121  165.2037 C.ar    1  UNL1        0.0015
     27 C         139.7080  139.7962  165.4012 C.ar    1  UNL1        0.0173
     28 C         139.0046  140.6458  164.3847 C.ar    1  UNL1        0.0015
     29 C         138.3933  140.0113  163.1706 C.ar    1  UNL1        0.0000
@<TRIPOS>BOND
     1    24    25   ar
     2    25    26   ar
     3    26    27   ar
     4    27     1    1
     5     1     2    2
     6     2     3    1
     7     3     4    2
     8     4     5    1
     9     5     6    2
    10     6     7    1
    11     7     8    1
    12     8     9    2
    13     9    10    1
    14    10    11    1
    15    11    12    1
    16    12    13    1
    17    13    14    1
    18    14    15    1
    19    15    16    1
    20    15    17    1
    21    17    18    1
    22    18    19   ar
    23    19    20   ar
    24    20    21   ar
    25    21    22   ar
    26    22    23   ar
    27    27    28   ar
    28    28    29   ar
    29    29    24   ar
    30     9     1    1
    31    16    10    1
    32    23    18   ar
    33     8     3    1
    34    17    12    1
