@<TRIPOS>MOLECULE
*****
 28 31 0 0 0
SMALL
GASTEIGER

@<TRIPOS>ATOM
      1 N         140.1067  139.5881  164.9527 N.3     1  UNL1       -0.2727
      2 C         140.1842  138.8667  163.6398 C.3     1  UNL1        0.0613
      3 C         139.2908  137.6644  163.7180 C.3     1  UNL1        0.0175
      4 C         138.6610  137.6427  165.0792 C.3     1  UNL1        0.0175
      5 C         139.1652  138.8316  165.8423 C.3     1  UNL1        0.0613
      6 C         139.8283  140.0862  166.3575 C.3     1  UNL1        0.0595
      7 C         140.7411  140.7336  165.3587 C.3     1  UNL1        0.1686
      8 C         140.9191  140.1238  163.9998 C.3     1  UNL1        0.0595
      9 C         142.1393  140.7673  166.0610 C.3     1  UNL1        0.0222
     10 C         140.8415  140.8452  165.3127 C.3     1  UNL1        0.0801
     11 C         140.2787  142.1803  164.9245 C.ar    1  UNL1       -0.0078
     12 C         141.1870  143.2544  164.4036 C.ar    1  UNL1       -0.0030
     13 C         140.6240  144.5895  164.0154 C.ar    1  UNL1       -0.0003
     14 C         139.1529  144.8505  164.1479 C.ar    1  UNL1       -0.0000
     15 C         138.2446  143.7763  164.6688 C.ar    1  UNL1       -0.0003
     16 C         138.8075  142.4412  165.0571 C.ar    1  UNL1       -0.0030
     17 O         141.4760  141.9908  165.7188 O.3     1  UNL1       -0.4791
     18 C         141.7738  142.2998  167.1561 C.ar    1  UNL1        0.1385
     19 C         143.1429  142.0396  167.7111 C.ar    1  UNL1        0.0369
     20 C         143.4407  142.3487  169.1483 C.ar    1  UNL1        0.0033
     21 C         142.3695  142.9180  170.0306 C.ar    1  UNL1        0.0047
     22 C         141.0005  143.1782  169.4756 C.ar    1  UNL1        0.0561
     23 C         140.7027  142.8691  168.0383 C.ar    1  UNL1        0.0414
     24 C         139.9293  143.7475  170.3579 C.2     1  UNL1        0.2428
     25 N         139.7870  145.2338  170.5012 N.am    1  UNL1       -0.3253
     26 O         139.0004  142.8304  171.0970 O.2     1  UNL1       -0.2704
     27 H         140.3967  145.8358  170.0162 H       1  UNL1        0.1453
     28 H         139.0840  145.6075  171.0803 H       1  UNL1        0.1453
@<TRIPOS>BOND
     1    10     9    1
     2    10    11    1
     3    11    12   ar
     4    12    13   ar
     5    13    14   ar
     6    14    15   ar
     7    15    16   ar
     8    10     1    1
     9     1     2    1
    10     2     3    1
    11     3     4    1
    12     5     4    1
    13     5     6    1
    14     6     7    1
    15     7    17    1
    16    17    18    1
    17    18    19   ar
    18    19    20   ar
    19    20    21   ar
    20    21    22   ar
    21    22    24    1
    22    24    25   am
    23    24    26    2
    24    22    23   ar
    25     7     8    1
    26    16    11   ar
    27     5     1    1
    28    23    18   ar
    29     8     2    1
    30    25    27    1
    31    25    28    1
@<TRIPOS>MOLECULE
*****
 28 31 0 0 0
SMALL
GASTEIGER

@<TRIPOS>ATOM
      1 N         143.4471  141.9243  164.4471 N.3     1  UNL1       -0.2727
      2 C         144.5638  142.7602  163.8955 C.3     1  UNL1        0.0613
      3 C         145.5561  141.8398  163.2488 C.3     1  UNL1        0.0175
      4 C         145.0525  140.4350  163.4006 C.3     1  UNL1        0.0175
      5 C         143.7491  140.4872  164.1412 C.3     1  UNL1        0.0613
      6 C         142.4849  140.8384  164.8878 C.3     1  UNL1        0.0595
      7 C         142.3175  142.3107  165.1210 C.3     1  UNL1        0.1686
      8 C         143.3570  143.2716  164.6249 C.3     1  UNL1        0.0595
      9 C         142.2369  142.4899  166.6754 C.3     1  UNL1        0.0222
     10 C         142.2402  142.4357  165.1764 C.3     1  UNL1        0.0801
     11 C         141.0367  142.8929  164.4067 C.ar    1  UNL1       -0.0078
     12 C         140.4881  144.2723  164.6223 C.ar    1  UNL1       -0.0030
     13 C         139.2845  144.7295  163.8525 C.ar    1  UNL1       -0.0003
     14 C         138.6296  143.8074  162.8673 C.ar    1  UNL1       -0.0000
     15 C         139.1782  142.4280  162.6517 C.ar    1  UNL1       -0.0003
     16 C         140.3818  141.9708  163.4214 C.ar    1  UNL1       -0.0030
     17 O         141.1106  142.8221  165.8504 O.3     1  UNL1       -0.4791
     18 C         140.5552  142.0536  167.0127 C.ar    1  UNL1        0.1385
     19 C         139.9520  140.6975  166.7958 C.ar    1  UNL1        0.0369
     20 C         139.3967  139.9290  167.9580 C.ar    1  UNL1        0.0033
     21 C         139.4446  140.5166  169.3373 C.ar    1  UNL1        0.0047
     22 C         140.0478  141.8727  169.5543 C.ar    1  UNL1        0.0561
     23 C         140.6031  142.6412  168.3919 C.ar    1  UNL1        0.0414
     24 C         140.0956  142.4603  170.9335 C.2     1  UNL1        0.2428
     25 N         138.9808  143.3424  171.4121 N.am    1  UNL1       -0.3253
     26 O         141.2584  142.1658  171.8343 O.2     1  UNL1       -0.2704
     27 H         138.2177  143.5357  170.8209 H       1  UNL1        0.1453
     28 H         139.0122  143.7281  172.3174 H       1  UNL1        0.1453
@<TRIPOS>BOND
     1    10     9    1
     2    10    11    1
     3    11    12   ar
     4    12    13   ar
     5    13    14   ar
     6    14    15   ar
     7    15    16   ar
     8    10     1    1
     9     1     2    1
    10     2     3    1
    11     3     4    1
    12     5     4    1
    13     5     6    1
    14     6     7    1
    15     7    17    1
    16    17    18    1
    17    18    19   ar
    18    19    20   ar
    19    20    21   ar
    20    21    22   ar
    21    22    24    1
    22    24    25   am
    23    24    26    2
    24    22    23   ar
    25     7     8    1
    26    16    11   ar
    27     5     1    1
    28    23    18   ar
    29     8     2    1
    30    25    27    1
    31    25    28    1
@<TRIPOS>MOLECULE
*****
 28 31 0 0 0
SMALL
GASTEIGER

@<TRIPOS>ATOM
      1 N         142.9426  141.4750  164.3049 N.3     1  UNL1       -0.2727
      2 C         143.3856  140.8817  163.0004 C.3     1  UNL1        0.0613
      3 C         144.8344  141.2184  162.8062 C.3     1  UNL1        0.0175
      4 C         145.2868  142.0197  163.9908 C.3     1  UNL1        0.0175
      5 C         144.1176  142.1783  164.9170 C.3     1  UNL1        0.0613
      6 C         142.7929  142.1760  165.6411 C.3     1  UNL1        0.0595
      7 C         141.7129  141.4352  164.9097 C.3     1  UNL1        0.1686
      8 C         142.0093  140.7881  163.5894 C.3     1  UNL1        0.0595
      9 C         141.2376  140.2830  165.8613 C.3     1  UNL1        0.0222
     10 C         141.5663  141.3813  164.8939 C.3     1  UNL1        0.0801
     11 C         140.5187  142.3860  164.5156 C.ar    1  UNL1       -0.0078
     12 C         139.1744  141.9237  164.0366 C.ar    1  UNL1       -0.0030
     13 C         138.1268  142.9285  163.6583 C.ar    1  UNL1       -0.0003
     14 C         138.4234  144.3953  163.7589 C.ar    1  UNL1       -0.0000
     15 C         139.7677  144.8576  164.2379 C.ar    1  UNL1       -0.0003
     16 C         140.8153  143.8529  164.6162 C.ar    1  UNL1       -0.0030
     17 O         140.3365  141.3416  165.4988 O.3     1  UNL1       -0.4791
     18 C         140.1556  141.3536  166.9878 C.ar    1  UNL1        0.1385
     19 C         139.5321  140.1763  167.6771 C.ar    1  UNL1        0.0369
     20 C         139.3512  140.1883  169.1660 C.ar    1  UNL1        0.0033
     21 C         139.7938  141.3776  169.9658 C.ar    1  UNL1        0.0047
     22 C         140.4174  142.5549  169.2765 C.ar    1  UNL1        0.0561
     23 C         140.5983  142.5429  167.7875 C.ar    1  UNL1        0.0414
     24 C         140.8600  143.7442  170.0763 C.2     1  UNL1        0.2428
     25 N         139.9164  144.8876  170.3049 N.am    1  UNL1       -0.3253
     26 O         142.2463  143.7901  170.6474 O.2     1  UNL1       -0.2704
     27 H         139.0065  144.8575  169.9301 H       1  UNL1        0.1453
     28 H         140.2069  145.6682  170.8299 H       1  UNL1        0.1453
@<TRIPOS>BOND
     1    10     9    1
     2    10    11    1
     3    11    12   ar
     4    12    13   ar
     5    13    14   ar
     6    14    15   ar
     7    15    16   ar
     8    10     1    1
     9     1     2    1
    10     2     3    1
    11     3     4    1
    12     5     4    1
    13     5     6    1
    14     6     7    1
    15     7    17    1
    16    17    18    1
    17    18    19   ar
    18    19    20   ar
    19    20    21   ar
    20    21    22   ar
    21    22    24    1
    22    24    25   am
    23    24    26    2
    24    22    23   ar
    25     7     8    1
    26    16    11   ar
    27     5     1    1
    28    23    18   ar
    29     8     2    1
    30    25    27    1
    31    25    28    1
@<TRIPOS>MOLECULE
*****
 28 31 0 0 0
SMALL
GASTEIGER

@<TRIPOS>ATOM
      1 N         139.4011  139.0382  163.8038 N.3     1  UNL1       -0.2727
      2 C         139.0395  137.7410  163.1430 C.3     1  UNL1        0.0613
      3 C         138.1116  138.0438  162.0040 C.3     1  UNL1        0.0175
      4 C         137.8998  139.5281  161.9608 C.3     1  UNL1        0.0175
      5 C         138.6967  140.1427  163.0731 C.3     1  UNL1        0.0613
      6 C         139.5793  140.4758  164.2517 C.3     1  UNL1        0.0595
      7 C         140.2161  139.2722  164.8810 C.3     1  UNL1        0.1686
      8 C         139.9462  137.9048  164.3266 C.3     1  UNL1        0.0595
      9 C         139.7339  139.2364  166.3728 C.3     1  UNL1        0.0222
     10 C         140.3078  139.2020  164.9874 C.3     1  UNL1        0.0801
     11 C         141.7885  139.3314  164.7855 C.ar    1  UNL1       -0.0078
     12 C         142.3256  140.2962  163.7701 C.ar    1  UNL1       -0.0030
     13 C         143.8063  140.4256  163.5683 C.ar    1  UNL1       -0.0003
     14 C         144.7500  139.5903  164.3817 C.ar    1  UNL1       -0.0000
     15 C         144.2129  138.6256  165.3971 C.ar    1  UNL1       -0.0003
     16 C         142.7322  138.4962  165.5990 C.ar    1  UNL1       -0.0030
     17 O         141.1230  139.4361  166.0646 O.3     1  UNL1       -0.4791
     18 C         140.8552  140.5160  167.0707 C.ar    1  UNL1        0.1385
     19 C         140.7132  141.9403  166.6223 C.ar    1  UNL1        0.0369
     20 C         140.4454  143.0201  167.6284 C.ar    1  UNL1        0.0033
     21 C         140.3196  142.6757  169.0828 C.ar    1  UNL1        0.0047
     22 C         140.4616  141.2513  169.5312 C.ar    1  UNL1        0.0561
     23 C         140.7294  140.1715  168.5251 C.ar    1  UNL1        0.0414
     24 C         140.3357  140.9068  170.9857 C.2     1  UNL1        0.2428
     25 N         139.9418  139.5190  171.3964 N.am    1  UNL1       -0.3253
     26 O         140.6038  141.9503  172.0295 O.2     1  UNL1       -0.2704
     27 H         139.7659  138.8341  170.7113 H       1  UNL1        0.1453
     28 H         139.8593  139.2929  172.3510 H       1  UNL1        0.1453
@<TRIPOS>BOND
     1    10     9    1
     2    10    11    1
     3    11    12   ar
     4    12    13   ar
     5    13    14   ar
     6    14    15   ar
     7    15    16   ar
     8    10     1    1
     9     1     2    1
    10     2     3    1
    11     3     4    1
    12     5     4    1
    13     5     6    1
    14     6     7    1
    15     7    17    1
    16    17    18    1
    17    18    19   ar
    18    19    20   ar
    19    20    21   ar
    20    21    22   ar
    21    22    24    1
    22    24    25   am
    23    24    26    2
    24    22    23   ar
    25     7     8    1
    26    16    11   ar
    27     5     1    1
    28    23    18   ar
    29     8     2    1
    30    25    27    1
    31    25    28    1
@<TRIPOS>MOLECULE
*****
 28 31 0 0 0
SMALL
GASTEIGER

@<TRIPOS>ATOM
      1 N         139.6831  139.5618  164.0587 N.3     1  UNL1       -0.2727
      2 C         138.5109  138.9401  163.3590 C.3     1  UNL1        0.0613
      3 C         139.0270  137.8450  162.4734 C.3     1  UNL1        0.0175
      4 C         140.5182  137.7897  162.6258 C.3     1  UNL1        0.0175
      5 C         140.9237  138.8508  163.6055 C.3     1  UNL1        0.0613
      6 C         141.0356  139.9780  164.6035 C.3     1  UNL1        0.0595
      7 C         139.7150  140.5926  164.9618 C.3     1  UNL1        0.1686
      8 C         138.4527  140.0737  164.3396 C.3     1  UNL1        0.0595
      9 C         139.5750  140.4118  166.5114 C.3     1  UNL1        0.0222
     10 C         139.6249  140.6953  165.0393 C.3     1  UNL1        0.0801
     11 C         139.6166  142.1125  164.5478 C.ar    1  UNL1       -0.0078
     12 C         138.4652  143.0148  164.8798 C.ar    1  UNL1       -0.0030
     13 C         138.4569  144.4319  164.3883 C.ar    1  UNL1       -0.0003
     14 C         139.5999  144.9468  163.5647 C.ar    1  UNL1       -0.0000
     15 C         140.7514  144.0445  163.2327 C.ar    1  UNL1       -0.0003
     16 C         140.7597  142.6274  163.7242 C.ar    1  UNL1       -0.0030
     17 O         139.6569  141.7263  165.9425 O.3     1  UNL1       -0.4791
     18 C         140.6002  141.7586  167.1083 C.ar    1  UNL1        0.1385
     19 C         142.0278  142.1725  166.9067 C.ar    1  UNL1        0.0369
     20 C         142.9711  142.2048  168.0724 C.ar    1  UNL1        0.0033
     21 C         142.4869  141.8232  169.4398 C.ar    1  UNL1        0.0047
     22 C         141.0593  141.4093  169.6415 C.ar    1  UNL1        0.0561
     23 C         140.1160  141.3770  168.4757 C.ar    1  UNL1        0.0414
     24 C         140.5751  141.0277  171.0089 C.2     1  UNL1        0.2428
     25 N         140.0207  139.6553  171.2523 N.am    1  UNL1       -0.3253
     26 O         140.6453  142.0185  172.1330 O.2     1  UNL1       -0.2704
     27 H         139.9746  139.0050  170.5146 H       1  UNL1        0.1453
     28 H         139.7029  139.4048  172.1498 H       1  UNL1        0.1453
@<TRIPOS>BOND
     1    10     9    1
     2    10    11    1
     3    11    12   ar
     4    12    13   ar
     5    13    14   ar
     6    14    15   ar
     7    15    16   ar
     8    10     1    1
     9     1     2    1
    10     2     3    1
    11     3     4    1
    12     5     4    1
    13     5     6    1
    14     6     7    1
    15     7    17    1
    16    17    18    1
    17    18    19   ar
    18    19    20   ar
    19    20    21   ar
    20    21    22   ar
    21    22    24    1
    22    24    25   am
    23    24    26    2
    24    22    23   ar
    25     7     8    1
    26    16    11   ar
    27     5     1    1
    28    23    18   ar
    29     8     2    1
    30    25    27    1
    31    25    28    1
@<TRIPOS>MOLECULE
*****
 28 31 0 0 0
SMALL
GASTEIGER

@<TRIPOS>ATOM
      1 N         140.2530  143.2599  163.8043 N.3     1  UNL1       -0.2727
      2 C         140.4383  143.2351  162.3160 C.3     1  UNL1        0.0613
      3 C         139.6482  144.3683  161.7315 C.3     1  UNL1        0.0175
      4 C         138.9746  145.0934  162.8586 C.3     1  UNL1        0.0175
      5 C         139.3483  144.4084  164.1397 C.3     1  UNL1        0.0613
      6 C         139.8834  143.5352  165.2489 C.3     1  UNL1        0.0595
      7 C         140.7727  142.4292  164.7631 C.3     1  UNL1        0.1686
      8 C         141.0502  142.2791  163.2967 C.3     1  UNL1        0.0595
      9 C         142.1264  142.6750  165.5067 C.3     1  UNL1        0.0222
     10 C         140.8649  142.3039  164.7850 C.3     1  UNL1        0.0801
     11 C         140.2152  140.9770  165.0440 C.ar    1  UNL1       -0.0078
     12 C         138.7776  140.9157  165.4682 C.ar    1  UNL1       -0.0030
     13 C         138.1280  139.5887  165.7272 C.ar    1  UNL1       -0.0003
     14 C         138.9158  138.3230  165.5620 C.ar    1  UNL1       -0.0000
     15 C         140.3533  138.3843  165.1379 C.ar    1  UNL1       -0.0003
     16 C         141.0030  139.7112  164.8789 C.ar    1  UNL1       -0.0030
     17 O         141.3846  141.4733  165.7439 O.3     1  UNL1       -0.4791
     18 C         141.7536  141.9440  167.1196 C.ar    1  UNL1        0.1385
     19 C         143.1753  141.8495  167.5884 C.ar    1  UNL1        0.0369
     20 C         143.5442  142.3202  168.9640 C.ar    1  UNL1        0.0033
     21 C         142.4914  142.8853  169.8708 C.ar    1  UNL1        0.0047
     22 C         141.0697  142.9797  169.4019 C.ar    1  UNL1        0.0561
     23 C         140.7008  142.5091  168.0263 C.ar    1  UNL1        0.0414
     24 C         140.0170  143.5449  170.3088 C.2     1  UNL1        0.2428
     25 N         139.8240  145.0296  170.4001 N.am    1  UNL1       -0.3253
     26 O         139.1571  142.6252  171.1243 O.2     1  UNL1       -0.2704
     27 H         140.3883  145.6332  169.8648 H       1  UNL1        0.1453
     28 H         139.1330  145.4005  170.9952 H       1  UNL1        0.1453
@<TRIPOS>BOND
     1    10     9    1
     2    10    11    1
     3    11    12   ar
     4    12    13   ar
     5    13    14   ar
     6    14    15   ar
     7    15    16   ar
     8    10     1    1
     9     1     2    1
    10     2     3    1
    11     3     4    1
    12     5     4    1
    13     5     6    1
    14     6     7    1
    15     7    17    1
    16    17    18    1
    17    18    19   ar
    18    19    20   ar
    19    20    21   ar
    20    21    22   ar
    21    22    24    1
    22    24    25   am
    23    24    26    2
    24    22    23   ar
    25     7     8    1
    26    16    11   ar
    27     5     1    1
    28    23    18   ar
    29     8     2    1
    30    25    27    1
    31    25    28    1
@<TRIPOS>MOLECULE
*****
 28 31 0 0 0
SMALL
GASTEIGER

@<TRIPOS>ATOM
      1 N         142.5544  143.2517  165.0922 N.3     1  UNL1       -0.2727
      2 C         143.8980  143.8883  164.8930 C.3     1  UNL1        0.0613
      3 C         143.7158  145.0899  164.0138 C.3     1  UNL1        0.0175
      4 C         142.2597  145.1959  163.6697 C.3     1  UNL1        0.0175
      5 C         141.5419  144.0599  164.3362 C.3     1  UNL1        0.0613
      6 C         141.0943  142.8431  165.1095 C.3     1  UNL1        0.0595
      7 C         142.2146  142.1367  165.8139 C.3     1  UNL1        0.1686
      8 C         143.6164  142.6593  165.7056 C.3     1  UNL1        0.0595
      9 C         142.3177  140.6698  165.2587 C.3     1  UNL1        0.0222
     10 C         142.2729  142.0227  165.9048 C.3     1  UNL1        0.0801
     11 C         141.9464  142.1467  167.3636 C.ar    1  UNL1       -0.0078
     12 C         142.8156  141.4768  168.3863 C.ar    1  UNL1       -0.0030
     13 C         142.4891  141.6009  169.8451 C.ar    1  UNL1       -0.0003
     14 C         141.2935  142.3947  170.2812 C.ar    1  UNL1       -0.0000
     15 C         140.4243  143.0646  169.2585 C.ar    1  UNL1       -0.0003
     16 C         140.7507  142.9406  167.7998 C.ar    1  UNL1       -0.0030
     17 O         141.9329  140.9077  166.6265 O.3     1  UNL1       -0.4791
     18 C         140.7787  140.0194  166.2675 C.ar    1  UNL1        0.1385
     19 C         139.6062  139.9015  167.1955 C.ar    1  UNL1        0.0369
     20 C         138.4520  139.0133  166.8365 C.ar    1  UNL1        0.0033
     21 C         138.4704  138.2429  165.5495 C.ar    1  UNL1        0.0047
     22 C         139.6430  138.3609  164.6216 C.ar    1  UNL1        0.0561
     23 C         140.7972  139.2491  164.9806 C.ar    1  UNL1        0.0414
     24 C         139.6614  137.5906  163.3346 C.2     1  UNL1        0.2428
     25 N         138.4250  137.5137  162.4888 N.am    1  UNL1       -0.3253
     26 O         140.9162  136.8970  162.8935 O.2     1  UNL1       -0.2704
     27 H         137.6014  137.9689  162.7783 H       1  UNL1        0.1453
     28 H         138.4370  137.0081  161.6441 H       1  UNL1        0.1453
@<TRIPOS>BOND
     1    10     9    1
     2    10    11    1
     3    11    12   ar
     4    12    13   ar
     5    13    14   ar
     6    14    15   ar
     7    15    16   ar
     8    10     1    1
     9     1     2    1
    10     2     3    1
    11     3     4    1
    12     5     4    1
    13     5     6    1
    14     6     7    1
    15     7    17    1
    16    17    18    1
    17    18    19   ar
    18    19    20   ar
    19    20    21   ar
    20    21    22   ar
    21    22    24    1
    22    24    25   am
    23    24    26    2
    24    22    23   ar
    25     7     8    1
    26    16    11   ar
    27     5     1    1
    28    23    18   ar
    29     8     2    1
    30    25    27    1
    31    25    28    1
@<TRIPOS>MOLECULE
*****
 28 31 0 0 0
SMALL
GASTEIGER

@<TRIPOS>ATOM
      1 N         141.6831  142.3548  168.3882 N.3     1  UNL1       -0.2727
      2 C         141.3891  143.1699  169.6126 C.3     1  UNL1        0.0613
      3 C         142.6307  143.2079  170.4533 C.3     1  UNL1        0.0175
      4 C         143.6921  142.4163  169.7485 C.3     1  UNL1        0.0175
      5 C         143.1064  141.8890  168.4722 C.3     1  UNL1        0.0613
      6 C         142.2668  141.5016  167.2789 C.3     1  UNL1        0.0595
      7 C         140.8672  142.0386  167.3327 C.3     1  UNL1        0.1686
      8 C         140.4284  142.8728  168.4996 C.3     1  UNL1        0.0595
      9 C         139.8771  140.8194  167.3245 C.3     1  UNL1        0.0222
     10 C         140.7224  142.0576  167.2752 C.3     1  UNL1        0.0801
     11 C         140.6069  142.9987  166.1129 C.ar    1  UNL1       -0.0078
     12 C         139.3139  143.7129  165.8517 C.ar    1  UNL1       -0.0030
     13 C         139.1984  144.6540  164.6893 C.ar    1  UNL1       -0.0003
     14 C         140.3758  144.8809  163.7882 C.ar    1  UNL1       -0.0000
     15 C         141.6688  144.1667  164.0494 C.ar    1  UNL1       -0.0003
     16 C         141.7843  143.2256  165.2117 C.ar    1  UNL1       -0.0030
     17 O         139.9065  141.7414  166.2197 O.3     1  UNL1       -0.4791
     18 C         139.9121  140.3921  165.5643 C.ar    1  UNL1        0.1385
     19 C         138.7509  139.4617  165.7534 C.ar    1  UNL1        0.0369
     20 C         138.7566  138.1125  165.0980 C.ar    1  UNL1        0.0033
     21 C         139.9234  137.6937  164.2537 C.ar    1  UNL1        0.0047
     22 C         141.0847  138.6241  164.0646 C.ar    1  UNL1        0.0561
     23 C         141.0790  139.9734  164.7200 C.ar    1  UNL1        0.0414
     24 C         142.2515  138.2053  163.2203 C.2     1  UNL1        0.2428
     25 N         142.0416  137.2863  162.0535 N.am    1  UNL1       -0.3253
     26 O         143.6285  138.7056  163.5426 O.2     1  UNL1       -0.2704
     27 H         141.1379  136.9579  161.8419 H       1  UNL1        0.1453
     28 H         142.8074  137.0114  161.4993 H       1  UNL1        0.1453
@<TRIPOS>BOND
     1    10     9    1
     2    10    11    1
     3    11    12   ar
     4    12    13   ar
     5    13    14   ar
     6    14    15   ar
     7    15    16   ar
     8    10     1    1
     9     1     2    1
    10     2     3    1
    11     3     4    1
    12     5     4    1
    13     5     6    1
    14     6     7    1
    15     7    17    1
    16    17    18    1
    17    18    19   ar
    18    19    20   ar
    19    20    21   ar
    20    21    22   ar
    21    22    24    1
    22    24    25   am
    23    24    26    2
    24    22    23   ar
    25     7     8    1
    26    16    11   ar
    27     5     1    1
    28    23    18   ar
    29     8     2    1
    30    25    27    1
    31    25    28    1
@<TRIPOS>MOLECULE
*****
 28 31 0 0 0
SMALL
GASTEIGER

@<TRIPOS>ATOM
      1 N         139.9733  142.2764  164.8976 N.3     1  UNL1       -0.2727
      2 C         139.1009  141.9587  163.7195 C.3     1  UNL1        0.0613
      3 C         138.1101  143.0738  163.5621 C.3     1  UNL1        0.0175
      4 C         138.3701  144.0808  164.6430 C.3     1  UNL1        0.0175
      5 C         139.5216  143.5880  165.4684 C.3     1  UNL1        0.0613
      6 C         140.6774  142.8574  166.1083 C.3     1  UNL1        0.0595
      7 C         141.0154  141.5627  165.4305 C.3     1  UNL1        0.1686
      8 C         140.2271  141.1133  164.2361 C.3     1  UNL1        0.0595
      9 C         140.8348  140.3836  166.4549 C.3     1  UNL1        0.0222
     10 C         141.0995  141.4310  165.4143 C.3     1  UNL1        0.0801
     11 C         142.4904  141.6331  164.8903 C.ar    1  UNL1       -0.0078
     12 C         143.2687  140.4659  164.3592 C.ar    1  UNL1       -0.0030
     13 C         144.6597  140.6681  163.8352 C.ar    1  UNL1       -0.0003
     14 C         145.2722  142.0372  163.8423 C.ar    1  UNL1       -0.0000
     15 C         144.4939  143.2044  164.3734 C.ar    1  UNL1       -0.0003
     16 C         143.1030  143.0023  164.8974 C.ar    1  UNL1       -0.0030
     17 O         142.1417  140.7173  165.9472 O.3     1  UNL1       -0.4791
     18 C         142.4104  140.6454  167.4213 C.ar    1  UNL1        0.1385
     19 C         142.1158  139.3833  168.1766 C.ar    1  UNL1        0.0369
     20 C         142.3845  139.3114  169.6505 C.ar    1  UNL1        0.0033
     21 C         142.9476  140.5015  170.3692 C.ar    1  UNL1        0.0047
     22 C         143.2422  141.7635  169.6138 C.ar    1  UNL1        0.0561
     23 C         142.9735  141.8354  168.1398 C.ar    1  UNL1        0.0414
     24 C         143.8053  142.9536  170.3325 C.2     1  UNL1        0.2428
     25 N         145.2887  143.1728  170.3726 N.am    1  UNL1       -0.3253
     26 O         142.8851  143.9246  171.0112 O.2     1  UNL1       -0.2704
     27 H         145.8927  142.5356  169.9272 H       1  UNL1        0.1453
     28 H         145.6583  143.9539  170.8443 H       1  UNL1        0.1453
@<TRIPOS>BOND
     1    10     9    1
     2    10    11    1
     3    11    12   ar
     4    12    13   ar
     5    13    14   ar
     6    14    15   ar
     7    15    16   ar
     8    10     1    1
     9     1     2    1
    10     2     3    1
    11     3     4    1
    12     5     4    1
    13     5     6    1
    14     6     7    1
    15     7    17    1
    16    17    18    1
    17    18    19   ar
    18    19    20   ar
    19    20    21   ar
    20    21    22   ar
    21    22    24    1
    22    24    25   am
    23    24    26    2
    24    22    23   ar
    25     7     8    1
    26    16    11   ar
    27     5     1    1
    28    23    18   ar
    29     8     2    1
    30    25    27    1
    31    25    28    1
