@<TRIPOS>MOLECULE
*****
 33 35 0 0 0
SMALL
GASTEIGER

@<TRIPOS>ATOM
      1 C         143.0297  139.3013  166.1900 C.2     1  UNL1        0.2521
      2 O         143.6912  138.0564  166.7025 O.2     1  UNL1       -0.2698
      3 N         143.2251  139.7215  164.7635 N.am    1  UNL1       -0.2725
      4 C         142.5637  140.9664  164.2510 C.3     1  UNL1        0.1151
      5 C         142.7591  141.3866  162.8243 C.3     1  UNL1        0.1124
      6 N         143.6160  140.5619  161.9102 N.pl3   1  UNL1       -0.3023
      7 C         144.2775  139.3170  162.4227 C.3     1  UNL1        0.1124
      8 C         144.0821  138.8968  163.8493 C.3     1  UNL1        0.1151
      9 C         143.8114  140.9821  160.4836 C.ar    1  UNL1        0.0758
     10 C         143.4216  140.0569  159.3691 C.ar    1  UNL1        0.0175
     11 C         143.6171  140.4772  157.9425 C.ar    1  UNL1        0.0117
     12 C         144.2022  141.8226  157.6304 C.ar    1  UNL1        0.0708
     13 C         144.5920  142.7478  158.7449 C.ar    1  UNL1        0.0412
     14 C         144.3966  142.3276  160.1715 C.ar    1  UNL1        0.1540
     15 F         144.7863  143.2528  161.2860 F       1  UNL1       -0.2028
     16 C         144.3976  142.2428  156.2038 C.1     1  UNL1        0.1005
     17 N         144.5930  142.6630  154.7771 N.1     1  UNL1       -0.1908
     18 C         141.9538  141.8633  169.0235 C.ar    1  UNL1        0.1061
     19 C         140.4592  141.7754  168.9325 C.ar    1  UNL1        0.0215
     20 C         139.8214  140.8628  167.9273 C.ar    1  UNL1        0.0384
     21 C         140.6782  140.0381  167.0132 C.ar    1  UNL1        0.1433
     22 C         142.1728  140.1260  167.1042 C.ar    1  UNL1        0.0887
     23 C         142.8106  141.0386  168.1094 C.ar    1  UNL1        0.0259
     24 C         143.2294  143.6885  171.0339 C.3     1  UNL1        0.1816
     25 S         142.5916  142.7759  170.0287 S.O2    1  UNL1        0.0105
     26 O         143.8778  142.7254  169.2585 O.2     1  UNL1       -0.1686
     27 O         141.3055  142.8263  170.7990 O.2     1  UNL1       -0.1686
     28 O         140.0404  139.1255  166.0080 O.3     1  UNL1       -0.4665
     29 C         138.5478  138.9832  165.9650 C.3     1  UNL1        0.3081
     30 C         137.8894  137.7925  166.5965 C.3     1  UNL1        0.4380
     31 F         137.2310  136.6018  167.2280 F       1  UNL1       -0.1663
     32 F         138.4786  136.9062  165.5395 F       1  UNL1       -0.1663
     33 F         137.3003  138.6788  167.6536 F       1  UNL1       -0.1663
@<TRIPOS>BOND
     1    24    25    1
     2    25    26    2
     3    25    27    2
     4    25    18    1
     5    18    19   ar
     6    19    20   ar
     7    20    21   ar
     8    21    28    1
     9    28    29    1
    10    29    30    1
    11    30    31    1
    12    30    32    1
    13    30    33    1
    14    21    22   ar
    15    22     1    1
    16     1     2    2
    17     1     3   am
    18     3     4    1
    19     4     5    1
    20     5     6    1
    21     6     9    1
    22     9    10   ar
    23    10    11   ar
    24    11    12   ar
    25    12    16    1
    26    16    17    3
    27    12    13   ar
    28    13    14   ar
    29    14    15    1
    30     6     7    1
    31     7     8    1
    32    22    23   ar
    33    23    18   ar
    34     8     3    1
    35    14     9   ar
@<TRIPOS>MOLECULE
*****
 33 35 0 0 0
SMALL
GASTEIGER

@<TRIPOS>ATOM
      1 C         142.6021  140.3692  165.2987 C.2     1  UNL1        0.2521
      2 O         143.6825  139.3311  165.2279 O.2     1  UNL1       -0.2698
      3 N         142.1949  141.1135  164.0617 N.am    1  UNL1       -0.2725
      4 C         141.1145  142.1516  164.1325 C.3     1  UNL1        0.1151
      5 C         140.7073  142.8958  162.8954 C.3     1  UNL1        0.1124
      6 N         141.3805  142.6020  161.5876 N.pl3   1  UNL1       -0.3023
      7 C         142.4609  141.5639  161.5168 C.3     1  UNL1        0.1124
      8 C         142.8681  140.8196  162.7538 C.3     1  UNL1        0.1151
      9 C         140.9732  143.3462  160.3506 C.ar    1  UNL1        0.0758
     10 C         141.5023  144.7268  160.0976 C.ar    1  UNL1        0.0175
     11 C         141.0950  145.4711  158.8605 C.ar    1  UNL1        0.0117
     12 C         140.1587  144.8347  157.8765 C.ar    1  UNL1        0.0708
     13 C         139.6297  143.4541  158.1295 C.ar    1  UNL1        0.0412
     14 C         140.0369  142.7098  159.3665 C.ar    1  UNL1        0.1540
     15 F         139.5079  141.3292  159.6194 F       1  UNL1       -0.2028
     16 C         139.7515  145.5789  156.6395 C.1     1  UNL1        0.1005
     17 N         139.3443  146.3232  155.4024 N.1     1  UNL1       -0.1908
     18 C         141.9301  141.8384  168.9236 C.ar    1  UNL1        0.1061
     19 C         140.5827  141.2508  169.2223 C.ar    1  UNL1        0.0215
     20 C         139.9084  140.3694  168.2131 C.ar    1  UNL1        0.0384
     21 C         140.5815  140.0756  166.9053 C.ar    1  UNL1        0.1433
     22 C         141.9289  140.6631  166.6066 C.ar    1  UNL1        0.0887
     23 C         142.6032  141.5445  167.6158 C.ar    1  UNL1        0.0259
     24 C         143.2786  143.6012  170.9420 C.3     1  UNL1        0.1816
     25 S         142.6044  142.7198  169.9328 S.O2    1  UNL1        0.0105
     26 O         143.8680  142.6771  169.1258 O.2     1  UNL1       -0.1686
     27 O         141.3407  142.7625  170.7399 O.2     1  UNL1       -0.1686
     28 O         139.9072  139.1942  165.8961 O.3     1  UNL1       -0.4665
     29 C         138.4211  138.9974  165.9462 C.3     1  UNL1        0.3081
     30 C         137.8484  137.7690  166.5889 C.3     1  UNL1        0.4380
     31 F         137.2758  136.5406  167.2317 F       1  UNL1       -0.1663
     32 F         137.1284  138.6268  167.5868 F       1  UNL1       -0.1663
     33 F         138.5684  136.9112  165.5910 F       1  UNL1       -0.1663
@<TRIPOS>BOND
     1    24    25    1
     2    25    26    2
     3    25    27    2
     4    25    18    1
     5    18    19   ar
     6    19    20   ar
     7    20    21   ar
     8    21    28    1
     9    28    29    1
    10    29    30    1
    11    30    31    1
    12    30    32    1
    13    30    33    1
    14    21    22   ar
    15    22     1    1
    16     1     2    2
    17     1     3   am
    18     3     4    1
    19     4     5    1
    20     5     6    1
    21     6     9    1
    22     9    10   ar
    23    10    11   ar
    24    11    12   ar
    25    12    16    1
    26    16    17    3
    27    12    13   ar
    28    13    14   ar
    29    14    15    1
    30     6     7    1
    31     7     8    1
    32    22    23   ar
    33    23    18   ar
    34     8     3    1
    35    14     9   ar
@<TRIPOS>MOLECULE
*****
 33 35 0 0 0
SMALL
GASTEIGER

@<TRIPOS>ATOM
      1 C         141.4831  139.3461  164.0757 C.2     1  UNL1        0.2521
      2 O         142.6935  138.4607  164.1085 O.2     1  UNL1       -0.2698
      3 N         141.3094  140.3382  162.9641 N.am    1  UNL1       -0.2725
      4 C         140.0991  141.2236  162.9314 C.3     1  UNL1        0.1151
      5 C         139.9254  142.2157  161.8197 C.3     1  UNL1        0.1124
      6 N         140.9621  142.3223  160.7409 N.pl3   1  UNL1       -0.3023
      7 C         142.1725  141.4370  160.7737 C.3     1  UNL1        0.1124
      8 C         142.3462  140.4449  161.8853 C.3     1  UNL1        0.1151
      9 C         140.7885  143.3144  159.6294 C.ar    1  UNL1        0.0758
     10 C         141.5614  144.5998  159.6438 C.ar    1  UNL1        0.0175
     11 C         141.3877  145.5919  158.5321 C.ar    1  UNL1        0.0117
     12 C         140.4411  145.2986  157.4062 C.ar    1  UNL1        0.0708
     13 C         139.6682  144.0131  157.3918 C.ar    1  UNL1        0.0412
     14 C         139.8418  143.0211  158.5034 C.ar    1  UNL1        0.1540
     15 F         139.0689  141.7356  158.4890 F       1  UNL1       -0.2028
     16 C         140.2674  146.2906  156.2946 C.1     1  UNL1        0.1005
     17 N         140.0937  147.2827  155.1830 N.1     1  UNL1       -0.1908
     18 C         139.5653  139.9160  167.5031 C.ar    1  UNL1        0.1061
     19 C         138.3730  139.0261  167.3122 C.ar    1  UNL1        0.0215
     20 C         138.2175  138.2428  166.0425 C.ar    1  UNL1        0.0384
     21 C         139.2541  138.3495  164.9636 C.ar    1  UNL1        0.1433
     22 C         140.4464  139.2394  165.1546 C.ar    1  UNL1        0.0887
     23 C         140.6019  140.0227  166.4243 C.ar    1  UNL1        0.0259
     24 C         139.8764  141.4826  170.0426 C.3     1  UNL1        0.1816
     25 S         139.7209  140.6993  168.7729 S.O2    1  UNL1        0.0105
     26 O         140.7004  141.6086  168.0919 O.2     1  UNL1       -0.1686
     27 O         138.7413  139.7900  169.4538 O.2     1  UNL1       -0.1686
     28 O         139.0986  137.5662  163.6939 O.3     1  UNL1       -0.4665
     29 C         138.2913  138.1270  162.5608 C.3     1  UNL1        0.3081
     30 C         138.9063  138.2690  161.2001 C.3     1  UNL1        0.4380
     31 F         139.5213  138.4111  159.8394 F       1  UNL1       -0.1663
     32 F         140.1254  137.5350  161.6744 F       1  UNL1       -0.1663
     33 F         137.6872  139.0031  160.7258 F       1  UNL1       -0.1663
@<TRIPOS>BOND
     1    24    25    1
     2    25    26    2
     3    25    27    2
     4    25    18    1
     5    18    19   ar
     6    19    20   ar
     7    20    21   ar
     8    21    28    1
     9    28    29    1
    10    29    30    1
    11    30    31    1
    12    30    32    1
    13    30    33    1
    14    21    22   ar
    15    22     1    1
    16     1     2    2
    17     1     3   am
    18     3     4    1
    19     4     5    1
    20     5     6    1
    21     6     9    1
    22     9    10   ar
    23    10    11   ar
    24    11    12   ar
    25    12    16    1
    26    16    17    3
    27    12    13   ar
    28    13    14   ar
    29    14    15    1
    30     6     7    1
    31     7     8    1
    32    22    23   ar
    33    23    18   ar
    34     8     3    1
    35    14     9   ar
@<TRIPOS>MOLECULE
*****
 33 35 0 0 0
SMALL
GASTEIGER

@<TRIPOS>ATOM
      1 C         138.6910  140.2063  160.3901 C.2     1  UNL1        0.2521
      2 O         137.3128  139.8422  159.9230 O.2     1  UNL1       -0.2698
      3 N         138.9494  140.4478  161.8478 N.am    1  UNL1       -0.2725
      4 C         140.3275  140.8119  162.3149 C.3     1  UNL1        0.1151
      5 C         140.5859  141.0534  163.7727 C.3     1  UNL1        0.1124
      6 N         139.4662  140.9308  164.7632 N.pl3   1  UNL1       -0.3023
      7 C         138.0881  140.5668  164.2961 C.3     1  UNL1        0.1124
      8 C         137.8296  140.3253  162.8384 C.3     1  UNL1        0.1151
      9 C         139.7246  141.1724  166.2209 C.ar    1  UNL1        0.0758
     10 C         139.5563  140.0552  167.2076 C.ar    1  UNL1        0.0175
     11 C         139.8148  140.2968  168.6654 C.ar    1  UNL1        0.0117
     12 C         140.2415  141.6554  169.1363 C.ar    1  UNL1        0.0708
     13 C         140.4098  142.7726  168.1496 C.ar    1  UNL1        0.0412
     14 C         140.1514  142.5311  166.6919 C.ar    1  UNL1        0.1540
     15 F         140.3197  143.6483  165.7052 F       1  UNL1       -0.2028
     16 C         140.5000  141.8970  170.5940 C.1     1  UNL1        0.1005
     17 N         140.7584  142.1385  172.0517 N.1     1  UNL1       -0.1908
     18 C         141.6077  139.2192  157.8865 C.ar    1  UNL1        0.1061
     19 C         142.0500  140.5738  157.4184 C.ar    1  UNL1        0.0215
     20 C         141.3726  141.8060  157.9408 C.ar    1  UNL1        0.0384
     21 C         140.2530  141.6835  158.9314 C.ar    1  UNL1        0.1433
     22 C         139.8107  140.3288  159.3995 C.ar    1  UNL1        0.0887
     23 C         140.4881  139.0967  158.8771 C.ar    1  UNL1        0.0259
     24 C         142.9625  136.7548  156.8417 C.3     1  UNL1        0.1816
     25 S         142.2851  137.9870  157.3641 S.O2    1  UNL1        0.0105
     26 O         140.9483  137.3361  157.1659 O.2     1  UNL1       -0.1686
     27 O         143.6219  138.6379  157.5623 O.2     1  UNL1       -0.1686
     28 O         139.5756  142.9157  159.4538 O.3     1  UNL1       -0.4665
     29 C         140.3780  143.9748  160.1497 C.3     1  UNL1        0.3081
     30 C         139.7769  144.7443  161.2883 C.3     1  UNL1        0.4380
     31 F         139.1757  145.5138  162.4269 F       1  UNL1       -0.1663
     32 F         138.8212  143.6171  161.5455 F       1  UNL1       -0.1663
     33 F         140.7326  145.8715  161.0311 F       1  UNL1       -0.1663
@<TRIPOS>BOND
     1    24    25    1
     2    25    26    2
     3    25    27    2
     4    25    18    1
     5    18    19   ar
     6    19    20   ar
     7    20    21   ar
     8    21    28    1
     9    28    29    1
    10    29    30    1
    11    30    31    1
    12    30    32    1
    13    30    33    1
    14    21    22   ar
    15    22     1    1
    16     1     2    2
    17     1     3   am
    18     3     4    1
    19     4     5    1
    20     5     6    1
    21     6     9    1
    22     9    10   ar
    23    10    11   ar
    24    11    12   ar
    25    12    16    1
    26    16    17    3
    27    12    13   ar
    28    13    14   ar
    29    14    15    1
    30     6     7    1
    31     7     8    1
    32    22    23   ar
    33    23    18   ar
    34     8     3    1
    35    14     9   ar
@<TRIPOS>MOLECULE
*****
 33 35 0 0 0
SMALL
GASTEIGER

@<TRIPOS>ATOM
      1 C         139.2133  142.3632  164.6150 C.2     1  UNL1        0.2521
      2 O         137.9770  143.2032  164.4876 O.2     1  UNL1       -0.2698
      3 N         140.1307  142.1959  163.4401 N.am    1  UNL1       -0.2725
      4 C         141.3669  141.3560  163.5675 C.3     1  UNL1        0.1151
      5 C         142.2843  141.1887  162.3926 C.3     1  UNL1        0.1124
      6 N         141.9655  141.8614  161.0903 N.pl3   1  UNL1       -0.3023
      7 C         140.7293  142.7013  160.9630 C.3     1  UNL1        0.1124
      8 C         139.8119  142.8686  162.1378 C.3     1  UNL1        0.1151
      9 C         142.8829  141.6941  159.9155 C.ar    1  UNL1        0.0758
     10 C         143.8323  142.7940  159.5426 C.ar    1  UNL1        0.0175
     11 C         144.7497  142.6266  158.3677 C.ar    1  UNL1        0.0117
     12 C         144.7178  141.3595  157.5657 C.ar    1  UNL1        0.0708
     13 C         143.7684  140.2596  157.9386 C.ar    1  UNL1        0.0412
     14 C         142.8510  140.4269  159.1134 C.ar    1  UNL1        0.1540
     15 F         141.9016  139.3270  159.4863 F       1  UNL1       -0.2028
     16 C         145.6352  141.1922  156.3908 C.1     1  UNL1        0.1005
     17 N         146.5526  141.0249  155.2159 N.1     1  UNL1       -0.1908
     18 C         140.7234  141.7076  168.2260 C.ar    1  UNL1        0.1061
     19 C         140.1697  140.3453  168.5218 C.ar    1  UNL1        0.0215
     20 C         139.2971  139.6556  167.5153 C.ar    1  UNL1        0.0384
     21 C         138.9783  140.3283  166.2131 C.ar    1  UNL1        0.1433
     22 C         139.5321  141.6905  165.9173 C.ar    1  UNL1        0.0887
     23 C         140.4046  142.3802  166.9238 C.ar    1  UNL1        0.0259
     24 C         142.4686  143.0869  170.2390 C.3     1  UNL1        0.1816
     25 S         141.5960  142.3972  169.2325 S.O2    1  UNL1        0.0105
     26 O         140.5955  143.5099  169.3375 O.2     1  UNL1       -0.1686
     27 O         142.5965  141.2846  169.1276 O.2     1  UNL1       -0.1686
     28 O         138.1058  139.6386  165.2066 O.3     1  UNL1       -0.4665
     29 C         138.7213  138.7668  164.1526 C.3     1  UNL1        0.3081
     30 C         139.7091  137.7063  164.5393 C.3     1  UNL1        0.4380
     31 F         140.6969  136.6457  164.9260 F       1  UNL1       -0.1663
     32 F         140.7163  138.3023  163.6011 F       1  UNL1       -0.1663
     33 F         138.7019  137.1102  165.4775 F       1  UNL1       -0.1663
@<TRIPOS>BOND
     1    24    25    1
     2    25    26    2
     3    25    27    2
     4    25    18    1
     5    18    19   ar
     6    19    20   ar
     7    20    21   ar
     8    21    28    1
     9    28    29    1
    10    29    30    1
    11    30    31    1
    12    30    32    1
    13    30    33    1
    14    21    22   ar
    15    22     1    1
    16     1     2    2
    17     1     3   am
    18     3     4    1
    19     4     5    1
    20     5     6    1
    21     6     9    1
    22     9    10   ar
    23    10    11   ar
    24    11    12   ar
    25    12    16    1
    26    16    17    3
    27    12    13   ar
    28    13    14   ar
    29    14    15    1
    30     6     7    1
    31     7     8    1
    32    22    23   ar
    33    23    18   ar
    34     8     3    1
    35    14     9   ar
@<TRIPOS>MOLECULE
*****
 33 35 0 0 0
SMALL
GASTEIGER

@<TRIPOS>ATOM
      1 C         140.8722  140.2593  160.2958 C.2     1  UNL1        0.2521
      2 O         139.9073  139.3065  159.6546 O.2     1  UNL1       -0.2698
      3 N         140.8259  140.4900  161.7772 N.am    1  UNL1       -0.2725
      4 C         141.7908  141.4428  162.4184 C.3     1  UNL1        0.1151
      5 C         141.7445  141.6735  163.8999 C.3     1  UNL1        0.1124
      6 N         140.7332  140.9514  164.7401 N.pl3   1  UNL1       -0.3023
      7 C         139.7683  139.9986  164.0989 C.3     1  UNL1        0.1124
      8 C         139.8146  139.7679  162.6175 C.3     1  UNL1        0.1151
      9 C         140.6869  141.1821  166.2215 C.ar    1  UNL1        0.0758
     10 C         140.8569  140.0291  167.1658 C.ar    1  UNL1        0.0175
     11 C         140.8106  140.2599  168.6473 C.ar    1  UNL1        0.0117
     12 C         140.5943  141.6436  169.1844 C.ar    1  UNL1        0.0708
     13 C         140.4243  142.7966  168.2401 C.ar    1  UNL1        0.0412
     14 C         140.4706  142.5659  166.7587 C.ar    1  UNL1        0.1540
     15 F         140.3007  143.7189  165.8144 F       1  UNL1       -0.2028
     16 C         140.5480  141.8743  170.6658 C.1     1  UNL1        0.1005
     17 N         140.5017  142.1050  172.1472 N.1     1  UNL1       -0.1908
     18 C         142.6220  143.1037  158.1516 C.ar    1  UNL1        0.1061
     19 C         143.9059  142.4256  157.7751 C.ar    1  UNL1        0.0215
     20 C         144.1785  141.0254  158.2388 C.ar    1  UNL1        0.0384
     21 C         143.1674  140.3033  159.0790 C.ar    1  UNL1        0.1433
     22 C         141.8835  140.9814  159.4555 C.ar    1  UNL1        0.0887
     23 C         141.6108  142.3816  158.9918 C.ar    1  UNL1        0.0259
     24 C         142.0766  145.9041  157.2241 C.3     1  UNL1        0.1816
     25 S         142.3493  144.5039  157.6878 S.O2    1  UNL1        0.0105
     26 O         142.5113  144.0636  156.2631 O.2     1  UNL1       -0.1686
     27 O         142.1873  144.9442  159.1126 O.2     1  UNL1       -0.1686
     28 O         143.4400  138.9031  159.5428 O.3     1  UNL1       -0.4665
     29 C         144.1340  138.6683  160.8517 C.3     1  UNL1        0.3081
     30 C         143.3597  138.1561  162.0299 C.3     1  UNL1        0.4380
     31 F         142.5854  137.6440  163.2081 F       1  UNL1       -0.1663
     32 F         142.4083  137.4604  161.1021 F       1  UNL1       -0.1663
     33 F         144.3112  138.8519  162.9576 F       1  UNL1       -0.1663
@<TRIPOS>BOND
     1    24    25    1
     2    25    26    2
     3    25    27    2
     4    25    18    1
     5    18    19   ar
     6    19    20   ar
     7    20    21   ar
     8    21    28    1
     9    28    29    1
    10    29    30    1
    11    30    31    1
    12    30    32    1
    13    30    33    1
    14    21    22   ar
    15    22     1    1
    16     1     2    2
    17     1     3   am
    18     3     4    1
    19     4     5    1
    20     5     6    1
    21     6     9    1
    22     9    10   ar
    23    10    11   ar
    24    11    12   ar
    25    12    16    1
    26    16    17    3
    27    12    13   ar
    28    13    14   ar
    29    14    15    1
    30     6     7    1
    31     7     8    1
    32    22    23   ar
    33    23    18   ar
    34     8     3    1
    35    14     9   ar
@<TRIPOS>MOLECULE
*****
 33 35 0 0 0
SMALL
GASTEIGER

@<TRIPOS>ATOM
      1 C         139.1521  140.7897  160.3078 C.2     1  UNL1        0.2521
      2 O         137.8294  140.3538  159.7506 O.2     1  UNL1       -0.2698
      3 N         139.3239  140.9561  161.7886 N.am    1  UNL1       -0.2725
      4 C         140.6466  141.3920  162.3459 C.3     1  UNL1        0.1151
      5 C         140.8184  141.5584  163.8267 C.3     1  UNL1        0.1124
      6 N         139.6675  141.2889  164.7502 N.pl3   1  UNL1       -0.3023
      7 C         138.3448  140.8530  164.1930 C.3     1  UNL1        0.1124
      8 C         138.1730  140.6866  162.7122 C.3     1  UNL1        0.1151
      9 C         139.8393  141.4553  166.2310 C.ar    1  UNL1        0.0758
     10 C         140.3134  142.7647  166.7886 C.ar    1  UNL1        0.0175
     11 C         140.4853  142.9310  168.2695 C.ar    1  UNL1        0.0117
     12 C         140.1830  141.7881  169.1926 C.ar    1  UNL1        0.0708
     13 C         139.7089  140.4788  168.6351 C.ar    1  UNL1        0.0412
     14 C         139.5371  140.3124  167.1543 C.ar    1  UNL1        0.1540
     15 F         139.0630  139.0031  166.5967 F       1  UNL1       -0.2028
     16 C         140.3548  141.9545  170.6734 C.1     1  UNL1        0.1005
     17 N         140.5267  142.1209  172.1543 N.1     1  UNL1       -0.1908
     18 C         141.6421  142.6975  157.8767 C.ar    1  UNL1        0.1061
     19 C         142.6045  141.5982  157.5372 C.ar    1  UNL1        0.0215
     20 C         142.4162  140.2295  158.1212 C.ar    1  UNL1        0.0384
     21 C         141.2654  139.9600  159.0447 C.ar    1  UNL1        0.1433
     22 C         140.3030  141.0592  159.3842 C.ar    1  UNL1        0.0887
     23 C         140.4913  142.4279  158.8002 C.ar    1  UNL1        0.0259
     24 C         142.0187  145.4349  156.7086 C.3     1  UNL1        0.1816
     25 S         141.8304  144.0662  157.2926 S.O2    1  UNL1        0.0105
     26 O         142.8312  144.3854  158.3634 O.2     1  UNL1       -0.1686
     27 O         140.8296  143.7470  156.2218 O.2     1  UNL1       -0.1686
     28 O         141.0771  138.5912  159.6288 O.3     1  UNL1       -0.4665
     29 C         141.8124  138.2005  160.8764 C.3     1  UNL1        0.3081
     30 C         141.0547  137.6792  162.0614 C.3     1  UNL1        0.4380
     31 F         140.2970  137.1579  163.2463 F       1  UNL1       -0.1663
     32 F         139.7705  137.8084  161.2971 F       1  UNL1       -0.1663
     33 F         142.3389  137.5500  162.8257 F       1  UNL1       -0.1663
@<TRIPOS>BOND
     1    24    25    1
     2    25    26    2
     3    25    27    2
     4    25    18    1
     5    18    19   ar
     6    19    20   ar
     7    20    21   ar
     8    21    28    1
     9    28    29    1
    10    29    30    1
    11    30    31    1
    12    30    32    1
    13    30    33    1
    14    21    22   ar
    15    22     1    1
    16     1     2    2
    17     1     3   am
    18     3     4    1
    19     4     5    1
    20     5     6    1
    21     6     9    1
    22     9    10   ar
    23    10    11   ar
    24    11    12   ar
    25    12    16    1
    26    16    17    3
    27    12    13   ar
    28    13    14   ar
    29    14    15    1
    30     6     7    1
    31     7     8    1
    32    22    23   ar
    33    23    18   ar
    34     8     3    1
    35    14     9   ar
@<TRIPOS>MOLECULE
*****
 33 35 0 0 0
SMALL
GASTEIGER

@<TRIPOS>ATOM
      1 C         142.0281  142.8846  159.8809 C.2     1  UNL1        0.2521
      2 O         142.7084  144.0402  159.2086 O.2     1  UNL1       -0.2698
      3 N         141.9819  142.8094  161.3782 N.am    1  UNL1       -0.2725
      4 C         141.3016  141.6538  162.0504 C.3     1  UNL1        0.1151
      5 C         141.2554  141.5785  163.5479 C.3     1  UNL1        0.1124
      6 N         141.8894  142.6588  164.3730 N.pl3   1  UNL1       -0.3023
      7 C         142.5697  143.8144  163.7008 C.3     1  UNL1        0.1124
      8 C         142.6159  143.8897  162.2034 C.3     1  UNL1        0.1151
      9 C         141.8432  142.5836  165.8704 C.ar    1  UNL1        0.0758
     10 C         143.0866  142.2584  166.6438 C.ar    1  UNL1        0.0175
     11 C         143.0404  142.1831  168.1412 C.ar    1  UNL1        0.0117
     12 C         141.7507  142.4330  168.8652 C.ar    1  UNL1        0.0708
     13 C         140.5072  142.7582  168.0918 C.ar    1  UNL1        0.0412
     14 C         140.5534  142.8334  166.5945 C.ar    1  UNL1        0.1540
     15 F         139.3100  143.1586  165.8211 F       1  UNL1       -0.2028
     16 C         141.7044  142.3577  170.3626 C.1     1  UNL1        0.1005
     17 N         141.6582  142.2825  171.8600 N.1     1  UNL1       -0.1908
     18 C         139.3764  140.9132  157.6826 C.ar    1  UNL1        0.1061
     19 C         140.1259  139.6438  157.4052 C.ar    1  UNL1        0.0215
     20 C         141.5094  139.4547  157.9530 C.ar    1  UNL1        0.0384
     21 C         142.1435  140.5350  158.7782 C.ar    1  UNL1        0.1433
     22 C         141.3940  141.8043  159.0556 C.ar    1  UNL1        0.0887
     23 C         140.0105  141.9934  158.5078 C.ar    1  UNL1        0.0259
     24 C         136.6093  141.2914  156.5871 C.3     1  UNL1        0.1816
     25 S         137.9929  141.1023  157.1349 S.O2    1  UNL1        0.0105
     26 O         137.4313  140.3145  158.2812 O.2     1  UNL1       -0.1686
     27 O         138.5544  141.8901  155.9886 O.2     1  UNL1       -0.1686
     28 O         143.5270  140.3459  159.3260 O.3     1  UNL1       -0.4665
     29 C         143.8135  139.2115  160.2646 C.3     1  UNL1        0.3081
     30 C         144.2739  139.4939  161.6640 C.3     1  UNL1        0.4380
     31 F         144.7344  139.7763  163.0633 F       1  UNL1       -0.1663
     32 F         144.0375  138.0589  162.0313 F       1  UNL1       -0.1663
     33 F         144.5103  140.9288  161.2966 F       1  UNL1       -0.1663
@<TRIPOS>BOND
     1    24    25    1
     2    25    26    2
     3    25    27    2
     4    25    18    1
     5    18    19   ar
     6    19    20   ar
     7    20    21   ar
     8    21    28    1
     9    28    29    1
    10    29    30    1
    11    30    31    1
    12    30    32    1
    13    30    33    1
    14    21    22   ar
    15    22     1    1
    16     1     2    2
    17     1     3   am
    18     3     4    1
    19     4     5    1
    20     5     6    1
    21     6     9    1
    22     9    10   ar
    23    10    11   ar
    24    11    12   ar
    25    12    16    1
    26    16    17    3
    27    12    13   ar
    28    13    14   ar
    29    14    15    1
    30     6     7    1
    31     7     8    1
    32    22    23   ar
    33    23    18   ar
    34     8     3    1
    35    14     9   ar
@<TRIPOS>MOLECULE
*****
 33 35 0 0 0
SMALL
GASTEIGER

@<TRIPOS>ATOM
      1 C         143.4627  142.2613  164.6992 C.2     1  UNL1        0.2521
      2 O         144.6218  143.1973  164.8726 O.2     1  UNL1       -0.2698
      3 N         143.2402  141.5790  163.3820 N.am    1  UNL1       -0.2725
      4 C         142.0810  140.6429  163.2086 C.3     1  UNL1        0.1151
      5 C         141.8585  139.9607  161.8913 C.3     1  UNL1        0.1124
      6 N         142.7952  140.2145  160.7476 N.pl3   1  UNL1       -0.3023
      7 C         143.9544  141.1506  160.9210 C.3     1  UNL1        0.1124
      8 C         144.1769  141.8328  162.2382 C.3     1  UNL1        0.1151
      9 C         142.5727  139.5322  159.4304 C.ar    1  UNL1        0.0758
     10 C         142.0587  140.3142  158.2581 C.ar    1  UNL1        0.0175
     11 C         141.8362  139.6319  156.9408 C.ar    1  UNL1        0.0117
     12 C         142.1277  138.1677  156.7960 C.ar    1  UNL1        0.0708
     13 C         142.6417  137.3857  157.9683 C.ar    1  UNL1        0.0412
     14 C         142.8642  138.0679  159.2855 C.ar    1  UNL1        0.1540
     15 F         143.3782  137.2860  160.4578 F       1  UNL1       -0.2028
     16 C         141.9052  137.4854  155.4788 C.1     1  UNL1        0.1005
     17 N         141.6827  136.8031  154.1616 N.1     1  UNL1       -0.1908
     18 C         141.9335  140.7263  168.0242 C.ar    1  UNL1        0.1061
     19 C         140.6528  141.4998  168.1305 C.ar    1  UNL1        0.0215
     20 C         140.3086  142.5270  167.0931 C.ar    1  UNL1        0.0384
     21 C         141.2452  142.7809  165.9493 C.ar    1  UNL1        0.1433
     22 C         142.5260  142.0074  165.8430 C.ar    1  UNL1        0.0887
     23 C         142.8701  140.9802  166.8804 C.ar    1  UNL1        0.0259
     24 C         142.6219  138.6718  170.0991 C.3     1  UNL1        0.1816
     25 S         142.2777  139.6991  169.0616 S.O2    1  UNL1        0.0105
     26 O         141.4292  140.4257  170.0626 O.2     1  UNL1       -0.1686
     27 O         143.1262  138.9724  168.0606 O.2     1  UNL1       -0.1686
     28 O         140.9010  143.8081  164.9119 O.3     1  UNL1       -0.4665
     29 C         139.6236  143.6903  164.1346 C.3     1  UNL1        0.3081
     30 C         138.3322  144.1560  164.7391 C.3     1  UNL1        0.4380
     31 F         137.0408  144.6218  165.3436 F       1  UNL1       -0.1663
     32 F         139.0425  145.3240  165.3568 F       1  UNL1       -0.1663
     33 F         137.6219  142.9881  164.1215 F       1  UNL1       -0.1663
@<TRIPOS>BOND
     1    24    25    1
     2    25    26    2
     3    25    27    2
     4    25    18    1
     5    18    19   ar
     6    19    20   ar
     7    20    21   ar
     8    21    28    1
     9    28    29    1
    10    29    30    1
    11    30    31    1
    12    30    32    1
    13    30    33    1
    14    21    22   ar
    15    22     1    1
    16     1     2    2
    17     1     3   am
    18     3     4    1
    19     4     5    1
    20     5     6    1
    21     6     9    1
    22     9    10   ar
    23    10    11   ar
    24    11    12   ar
    25    12    16    1
    26    16    17    3
    27    12    13   ar
    28    13    14   ar
    29    14    15    1
    30     6     7    1
    31     7     8    1
    32    22    23   ar
    33    23    18   ar
    34     8     3    1
    35    14     9   ar
