@<TRIPOS>MOLECULE
*****
 36 40 0 0 0
SMALL
GASTEIGER

@<TRIPOS>ATOM
      1 C         138.7143  139.3066  167.3328 C.3     1  UNL1        0.0309
      2 C         140.0845  139.8679  167.0932 C.2     1  UNL1       -0.0191
      3 C         140.6173  139.9745  165.6951 C.2     1  UNL1        0.0177
      4 C         141.9875  140.5358  165.4554 C.3     1  UNL1        0.2102
      5 O         142.8250  140.9904  166.6138 O.3     1  UNL1       -0.4703
      6 C         142.2922  140.8838  168.0120 C.ar    1  UNL1        0.1391
      7 C         143.1296  141.3384  169.1704 C.ar    1  UNL1        0.0400
      8 C         142.5968  141.2318  170.5685 C.ar    1  UNL1        0.0397
      9 C         141.2266  140.6705  170.8082 C.ar    1  UNL1        0.1339
     10 O         140.6938  140.5639  172.2064 O.3     1  UNL1       -0.5055
     11 C         140.3891  140.2159  169.6498 C.ar    1  UNL1        0.0393
     12 C         140.9219  140.3225  168.2517 C.ar    1  UNL1        0.0329
     13 H         141.2169  140.8479  172.9300 H       1  UNL1        0.2922
     14 C         139.7799  139.5199  164.5366 C.ar    1  UNL1        0.0024
     15 C         139.9308  138.1260  164.0034 C.ar    1  UNL1        0.0000
     16 C         139.0934  137.6713  162.8450 C.ar    1  UNL1        0.0031
     17 C         138.1051  138.6106  162.2197 C.ar    1  UNL1        0.0366
     18 C         137.9542  140.0045  162.7528 C.ar    1  UNL1        0.1337
     19 O         136.9659  140.9438  162.1274 O.3     1  UNL1       -0.5055
     20 C         138.7916  140.4592  163.9112 C.ar    1  UNL1        0.0364
     21 H         136.4428  140.6597  161.4038 H       1  UNL1        0.2922
     22 C         142.5203  140.6424  164.0572 C.ar    1  UNL1        0.0217
     23 C         143.3602  139.5374  163.4884 C.ar    1  UNL1        0.0026
     24 C         143.8929  139.6441  162.0902 C.ar    1  UNL1        0.0367
     25 C         143.5858  140.8557  161.2610 C.ar    1  UNL1        0.1386
     26 C         142.7460  141.9607  161.8299 C.ar    1  UNL1        0.0367
     27 C         142.2132  141.8540  163.2280 C.ar    1  UNL1        0.0026
     28 O         144.1186  140.9623  159.8628 O.3     1  UNL1       -0.4740
     29 C         144.4360  142.3083  159.2818 C.3     1  UNL1        0.2226
     30 C         144.4056  142.5097  157.7957 C.3     1  UNL1        0.1200
     31 N         145.6580  142.3336  156.9891 N.3     1  UNL1       -0.2693
     32 C         147.0843  142.7744  157.1352 C.3     1  UNL1        0.0764
     33 C         147.4293  142.0846  155.8486 C.3     1  UNL1        0.0673
     34 C         146.0030  141.6438  155.7026 C.3     1  UNL1        0.0764
     35 C         148.6817  141.9086  155.0422 C.3     1  UNL1        0.1959
     36 F         149.8511  141.1713  155.6243 F       1  UNL1       -0.2343
@<TRIPOS>BOND
     1     1     2    1
     2     2     3    2
     3     3    14    1
     4    14    15   ar
     5    15    16   ar
     6    16    17   ar
     7    17    18   ar
     8    18    19    1
     9    18    20   ar
    10     3     4    1
    11     4    22    1
    12    22    23   ar
    13    23    24   ar
    14    24    25   ar
    15    25    28    1
    16    28    29    1
    17    29    30    1
    18    30    31    1
    19    31    32    1
    20    32    33    1
    21    33    35    1
    22    35    36    1
    23    33    34    1
    24    25    26   ar
    25    26    27   ar
    26     4     5    1
    27     5     6    1
    28     6     7   ar
    29     7     8   ar
    30     8     9   ar
    31     9    10    1
    32     9    11   ar
    33    11    12   ar
    34    12     2    1
    35    20    14   ar
    36    27    22   ar
    37    12     6   ar
    38    34    31    1
    39    19    21    1
    40    10    13    1
@<TRIPOS>MOLECULE
*****
 36 40 0 0 0
SMALL
GASTEIGER

@<TRIPOS>ATOM
      1 C         138.6198  139.3017  167.3218 C.3     1  UNL1        0.0309
      2 C         140.0069  139.8230  167.0888 C.2     1  UNL1       -0.0191
      3 C         140.5541  139.9017  165.6945 C.2     1  UNL1        0.0177
      4 C         141.9412  140.4230  165.4615 C.3     1  UNL1        0.2102
      5 O         142.7811  140.8655  166.6229 O.3     1  UNL1       -0.4703
      6 C         142.2338  140.7867  168.0173 C.ar    1  UNL1        0.1391
      7 C         143.0736  141.2293  169.1787 C.ar    1  UNL1        0.0400
      8 C         142.5264  141.1505  170.5730 C.ar    1  UNL1        0.0397
      9 C         141.1393  140.6293  170.8060 C.ar    1  UNL1        0.1339
     10 O         140.5921  140.5505  172.2005 O.3     1  UNL1       -0.5055
     11 C         140.2995  140.1867  169.6446 C.ar    1  UNL1        0.0393
     12 C         140.8467  140.2655  168.2503 C.ar    1  UNL1        0.0329
     13 H         141.1167  140.8269  172.9259 H       1  UNL1        0.2922
     14 C         139.7143  139.4592  164.5330 C.ar    1  UNL1        0.0024
     15 C         139.8097  138.0482  164.0330 C.ar    1  UNL1        0.0000
     16 C         138.9699  137.6057  162.8716 C.ar    1  UNL1        0.0031
     17 C         138.0347  138.5741  162.2102 C.ar    1  UNL1        0.0366
     18 C         137.9393  139.9851  162.7102 C.ar    1  UNL1        0.1337
     19 O         137.0041  140.9536  162.0487 O.3     1  UNL1       -0.5055
     20 C         138.7791  140.4277  163.8716 C.ar    1  UNL1        0.0364
     21 H         136.4795  140.6771  161.3232 H       1  UNL1        0.2922
     22 C         142.4885  140.5017  164.0670 C.ar    1  UNL1        0.0217
     23 C         143.2218  139.3313  163.4819 C.ar    1  UNL1        0.0026
     24 C         143.7689  139.4101  162.0876 C.ar    1  UNL1        0.0367
     25 C         143.5828  140.6592  161.2783 C.ar    1  UNL1        0.1386
     26 C         142.8496  141.8296  161.8634 C.ar    1  UNL1        0.0367
     27 C         142.3024  141.7509  163.2578 C.ar    1  UNL1        0.0026
     28 O         144.1301  140.7380  159.8838 O.3     1  UNL1       -0.4740
     29 C         143.3384  140.1868  158.7352 C.3     1  UNL1        0.2226
     30 C         142.5582  141.1124  157.8495 C.3     1  UNL1        0.1200
     31 N         141.9688  142.3711  158.4138 N.3     1  UNL1       -0.2693
     32 C         142.4483  143.7818  158.5876 C.3     1  UNL1        0.0764
     33 C         141.1353  144.1511  159.2118 C.3     1  UNL1        0.0673
     34 C         140.6558  142.7405  159.0380 C.3     1  UNL1        0.0764
     35 C         140.5460  145.4098  159.7760 C.3     1  UNL1        0.1959
     36 F         140.6780  145.7092  161.2399 F       1  UNL1       -0.2343
@<TRIPOS>BOND
     1     1     2    1
     2     2     3    2
     3     3    14    1
     4    14    15   ar
     5    15    16   ar
     6    16    17   ar
     7    17    18   ar
     8    18    19    1
     9    18    20   ar
    10     3     4    1
    11     4    22    1
    12    22    23   ar
    13    23    24   ar
    14    24    25   ar
    15    25    28    1
    16    28    29    1
    17    29    30    1
    18    30    31    1
    19    31    32    1
    20    32    33    1
    21    33    35    1
    22    35    36    1
    23    33    34    1
    24    25    26   ar
    25    26    27   ar
    26     4     5    1
    27     5     6    1
    28     6     7   ar
    29     7     8   ar
    30     8     9   ar
    31     9    10    1
    32     9    11   ar
    33    11    12   ar
    34    12     2    1
    35    20    14   ar
    36    27    22   ar
    37    12     6   ar
    38    34    31    1
    39    19    21    1
    40    10    13    1
@<TRIPOS>MOLECULE
*****
 36 40 0 0 0
SMALL
GASTEIGER

@<TRIPOS>ATOM
      1 C         143.2371  139.0497  167.1949 C.3     1  UNL1        0.0309
      2 C         142.3369  140.2434  167.0732 C.2     1  UNL1       -0.0191
      3 C         141.9084  140.7247  165.7188 C.2     1  UNL1        0.0177
      4 C         141.0082  141.9183  165.5971 C.3     1  UNL1        0.2102
      5 O         140.5365  142.6307  166.8300 O.3     1  UNL1       -0.4703
      6 C         140.9650  142.1494  168.1846 C.ar    1  UNL1        0.1391
      7 C         140.4933  142.8618  169.4174 C.ar    1  UNL1        0.0400
      8 C         140.9218  142.3805  170.7719 C.ar    1  UNL1        0.0397
      9 C         141.8220  141.1868  170.8935 C.ar    1  UNL1        0.1339
     10 O         142.2505  140.7055  172.2481 O.3     1  UNL1       -0.5055
     11 C         142.2937  140.4745  169.6607 C.ar    1  UNL1        0.0393
     12 C         141.8652  140.9558  168.3062 C.ar    1  UNL1        0.0329
     13 H         141.9558  141.1506  173.0183 H       1  UNL1        0.2922
     14 C         142.3801  140.0123  164.4858 C.ar    1  UNL1        0.0024
     15 C         143.6332  140.4605  163.7938 C.ar    1  UNL1        0.0000
     16 C         144.1049  139.7482  162.5609 C.ar    1  UNL1        0.0031
     17 C         143.3236  138.5877  162.0200 C.ar    1  UNL1        0.0366
     18 C         142.0705  138.1394  162.7121 C.ar    1  UNL1        0.1337
     19 O         141.2891  136.9788  162.1711 O.3     1  UNL1       -0.5055
     20 C         141.5987  138.8518  163.9449 C.ar    1  UNL1        0.0364
     21 H         141.5838  136.5339  161.4010 H       1  UNL1        0.2922
     22 C         140.5797  142.3996  164.2425 C.ar    1  UNL1        0.0217
     23 C         141.5390  143.1659  163.3808 C.ar    1  UNL1        0.0026
     24 C         141.1105  143.6471  162.0263 C.ar    1  UNL1        0.0367
     25 C         139.7227  143.3621  161.5335 C.ar    1  UNL1        0.1386
     26 C         138.7634  142.5959  162.3952 C.ar    1  UNL1        0.0367
     27 C         139.1919  142.1146  163.7497 C.ar    1  UNL1        0.0026
     28 O         139.2942  143.8434  160.1789 O.3     1  UNL1       -0.4740
     29 C         139.6186  143.0342  158.9583 C.3     1  UNL1        0.2226
     30 C         138.7592  141.8630  158.5847 C.3     1  UNL1        0.1200
     31 N         138.5719  140.7315  159.5515 N.3     1  UNL1       -0.2693
     32 C         139.4918  139.8316  160.3221 C.3     1  UNL1        0.0764
     33 C         138.3071  139.1314  160.9188 C.3     1  UNL1        0.0673
     34 C         137.3871  140.0313  160.1482 C.3     1  UNL1        0.0764
     35 C         138.1198  137.9999  161.8856 C.3     1  UNL1        0.1959
     36 F         138.3845  138.2105  163.3469 F       1  UNL1       -0.2343
@<TRIPOS>BOND
     1     1     2    1
     2     2     3    2
     3     3    14    1
     4    14    15   ar
     5    15    16   ar
     6    16    17   ar
     7    17    18   ar
     8    18    19    1
     9    18    20   ar
    10     3     4    1
    11     4    22    1
    12    22    23   ar
    13    23    24   ar
    14    24    25   ar
    15    25    28    1
    16    28    29    1
    17    29    30    1
    18    30    31    1
    19    31    32    1
    20    32    33    1
    21    33    35    1
    22    35    36    1
    23    33    34    1
    24    25    26   ar
    25    26    27   ar
    26     4     5    1
    27     5     6    1
    28     6     7   ar
    29     7     8   ar
    30     8     9   ar
    31     9    10    1
    32     9    11   ar
    33    11    12   ar
    34    12     2    1
    35    20    14   ar
    36    27    22   ar
    37    12     6   ar
    38    34    31    1
    39    19    21    1
    40    10    13    1
@<TRIPOS>MOLECULE
*****
 36 40 0 0 0
SMALL
GASTEIGER

@<TRIPOS>ATOM
      1 C         138.4688  139.4314  167.2792 C.3     1  UNL1        0.0309
      2 C         139.9200  139.7342  167.0502 C.2     1  UNL1       -0.0191
      3 C         140.4911  139.6646  165.6649 C.2     1  UNL1        0.0177
      4 C         141.9423  139.9674  165.4359 C.3     1  UNL1        0.2102
      5 O         142.8223  140.3397  166.5921 O.3     1  UNL1       -0.4703
      6 C         142.2512  140.4092  167.9775 C.ar    1  UNL1        0.1391
      7 C         143.1313  140.7816  169.1337 C.ar    1  UNL1        0.0400
      8 C         142.5601  140.8511  170.5189 C.ar    1  UNL1        0.0397
      9 C         141.1090  140.5483  170.7479 C.ar    1  UNL1        0.1339
     10 O         140.5378  140.6179  172.1333 O.3     1  UNL1       -0.5055
     11 C         140.2289  140.1760  169.5917 C.ar    1  UNL1        0.0393
     12 C         140.8001  140.1065  168.2065 C.ar    1  UNL1        0.0329
     13 H         141.0876  140.8505  172.8555 H       1  UNL1        0.2922
     14 C         139.6111  139.2923  164.5086 C.ar    1  UNL1        0.0024
     15 C         139.5841  137.8772  164.0119 C.ar    1  UNL1        0.0000
     16 C         138.7041  137.5048  162.8557 C.ar    1  UNL1        0.0031
     17 C         137.8511  138.5476  162.1961 C.ar    1  UNL1        0.0366
     18 C         137.8781  139.9627  162.6929 C.ar    1  UNL1        0.1337
     19 O         137.0251  141.0055  162.0333 O.3     1  UNL1       -0.5055
     20 C         138.7581  140.3350  163.8491 C.ar    1  UNL1        0.0364
     21 H         136.4754  140.7729  161.3110 H       1  UNL1        0.2922
     22 C         142.5134  139.8978  164.0506 C.ar    1  UNL1        0.0217
     23 C         142.3905  141.0746  163.1287 C.ar    1  UNL1        0.0026
     24 C         142.9616  141.0050  161.7435 C.ar    1  UNL1        0.0367
     25 C         143.6556  139.7586  161.2801 C.ar    1  UNL1        0.1386
     26 C         143.7786  138.5818  162.2020 C.ar    1  UNL1        0.0367
     27 C         143.2075  138.6514  163.5872 C.ar    1  UNL1        0.0026
     28 O         144.2267  139.6890  159.8948 O.3     1  UNL1       -0.4740
     29 C         143.3340  139.3779  158.7302 C.3     1  UNL1        0.2226
     30 C         142.3246  138.2732  158.8332 C.3     1  UNL1        0.1200
     31 N         142.0329  137.4103  157.6413 N.3     1  UNL1       -0.2693
     32 C         140.8670  137.2439  156.7123 C.3     1  UNL1        0.0764
     33 C         141.6202  136.1902  155.9558 C.3     1  UNL1        0.0673
     34 C         142.7861  136.3566  156.8847 C.3     1  UNL1        0.0764
     35 C         141.3284  135.3275  154.7640 C.3     1  UNL1        0.1959
     36 F         142.2973  134.2568  154.3578 F       1  UNL1       -0.2343
@<TRIPOS>BOND
     1     1     2    1
     2     2     3    2
     3     3    14    1
     4    14    15   ar
     5    15    16   ar
     6    16    17   ar
     7    17    18   ar
     8    18    19    1
     9    18    20   ar
    10     3     4    1
    11     4    22    1
    12    22    23   ar
    13    23    24   ar
    14    24    25   ar
    15    25    28    1
    16    28    29    1
    17    29    30    1
    18    30    31    1
    19    31    32    1
    20    32    33    1
    21    33    35    1
    22    35    36    1
    23    33    34    1
    24    25    26   ar
    25    26    27   ar
    26     4     5    1
    27     5     6    1
    28     6     7   ar
    29     7     8   ar
    30     8     9   ar
    31     9    10    1
    32     9    11   ar
    33    11    12   ar
    34    12     2    1
    35    20    14   ar
    36    27    22   ar
    37    12     6   ar
    38    34    31    1
    39    19    21    1
    40    10    13    1
@<TRIPOS>MOLECULE
*****
 36 40 0 0 0
SMALL
GASTEIGER

@<TRIPOS>ATOM
      1 C         139.0204  139.4480  167.2670 C.3     1  UNL1        0.0309
      2 C         140.1437  140.4308  167.1183 C.2     1  UNL1       -0.0191
      3 C         140.5700  140.8815  165.7526 C.2     1  UNL1        0.0177
      4 C         141.6934  141.8643  165.6039 C.3     1  UNL1        0.2102
      5 O         142.3905  142.3964  166.8208 O.3     1  UNL1       -0.4703
      6 C         141.9641  141.9457  168.1866 C.ar    1  UNL1        0.1391
      7 C         142.6612  142.4778  169.4035 C.ar    1  UNL1        0.0400
      8 C         142.2349  142.0271  170.7691 C.ar    1  UNL1        0.0397
      9 C         141.1115  141.0442  170.9179 C.ar    1  UNL1        0.1339
     10 O         140.6852  140.5935  172.2836 O.3     1  UNL1       -0.5055
     11 C         140.4145  140.5121  169.7009 C.ar    1  UNL1        0.0393
     12 C         140.8408  140.9629  168.3353 C.ar    1  UNL1        0.0329
     13 H         141.1206  140.9259  173.0438 H       1  UNL1        0.2922
     14 C         139.8730  140.3494  164.5356 C.ar    1  UNL1        0.0024
     15 C         140.4411  139.1716  163.8008 C.ar    1  UNL1        0.0000
     16 C         139.7441  138.6395  162.5838 C.ar    1  UNL1        0.0031
     17 C         138.4790  139.2852  162.1017 C.ar    1  UNL1        0.0366
     18 C         137.9109  140.4631  162.8365 C.ar    1  UNL1        0.1337
     19 O         136.6457  141.1088  162.3543 O.3     1  UNL1       -0.5055
     20 C         138.6079  140.9952  164.0535 C.ar    1  UNL1        0.0364
     21 H         136.2103  140.7764  161.5941 H       1  UNL1        0.2922
     22 C         142.1197  142.3151  164.2381 C.ar    1  UNL1        0.0217
     23 C         143.2449  141.6157  163.5348 C.ar    1  UNL1        0.0026
     24 C         143.6712  142.0664  162.1691 C.ar    1  UNL1        0.0367
     25 C         142.9722  143.2166  161.5068 C.ar    1  UNL1        0.1386
     26 C         141.8470  143.9159  162.2102 C.ar    1  UNL1        0.0367
     27 C         141.4208  143.4652  163.5758 C.ar    1  UNL1        0.0026
     28 O         143.3985  143.6673  160.1411 O.3     1  UNL1       -0.4740
     29 C         142.4803  143.4820  158.9695 C.3     1  UNL1        0.2226
     30 C         142.5027  142.1977  158.1950 C.3     1  UNL1        0.1200
     31 N         142.6039  140.8873  158.9181 N.3     1  UNL1       -0.2693
     32 C         141.6406  140.0066  159.6572 C.3     1  UNL1        0.0764
     33 C         142.7471  139.0343  159.9407 C.3     1  UNL1        0.0673
     34 C         143.7104  139.9150  159.2016 C.3     1  UNL1        0.0764
     35 C         142.8483  137.7240  160.6638 C.3     1  UNL1        0.1959
     36 F         143.2321  137.6952  162.1136 F       1  UNL1       -0.2343
@<TRIPOS>BOND
     1     1     2    1
     2     2     3    2
     3     3    14    1
     4    14    15   ar
     5    15    16   ar
     6    16    17   ar
     7    17    18   ar
     8    18    19    1
     9    18    20   ar
    10     3     4    1
    11     4    22    1
    12    22    23   ar
    13    23    24   ar
    14    24    25   ar
    15    25    28    1
    16    28    29    1
    17    29    30    1
    18    30    31    1
    19    31    32    1
    20    32    33    1
    21    33    35    1
    22    35    36    1
    23    33    34    1
    24    25    26   ar
    25    26    27   ar
    26     4     5    1
    27     5     6    1
    28     6     7   ar
    29     7     8   ar
    30     8     9   ar
    31     9    10    1
    32     9    11   ar
    33    11    12   ar
    34    12     2    1
    35    20    14   ar
    36    27    22   ar
    37    12     6   ar
    38    34    31    1
    39    19    21    1
    40    10    13    1
@<TRIPOS>MOLECULE
*****
 36 40 0 0 0
SMALL
GASTEIGER

@<TRIPOS>ATOM
      1 C         138.9150  139.3471  167.3835 C.3     1  UNL1        0.0309
      2 C         140.0585  140.3098  167.2596 C.2     1  UNL1       -0.0191
      3 C         140.5102  140.7674  165.9044 C.2     1  UNL1        0.0177
      4 C         141.6538  141.7302  165.7804 C.3     1  UNL1        0.2102
      5 O         142.3456  142.2354  167.0117 O.3     1  UNL1       -0.4703
      6 C         141.8939  141.7778  168.3670 C.ar    1  UNL1        0.1391
      7 C         142.5858  142.2831  169.5982 C.ar    1  UNL1        0.0400
      8 C         142.1341  141.8255  170.9534 C.ar    1  UNL1        0.0397
      9 C         140.9906  140.8628  171.0774 C.ar    1  UNL1        0.1339
     10 O         140.5389  140.4052  172.4326 O.3     1  UNL1       -0.5055
     11 C         140.2987  140.3575  169.8461 C.ar    1  UNL1        0.0393
     12 C         140.7504  140.8151  168.4909 C.ar    1  UNL1        0.0329
     13 H         140.9711  140.7208  173.2018 H       1  UNL1        0.2922
     14 C         139.8183  140.2622  164.6730 C.ar    1  UNL1        0.0024
     15 C         140.2507  138.9695  164.0468 C.ar    1  UNL1        0.0000
     16 C         139.5589  138.4643  162.8156 C.ar    1  UNL1        0.0031
     17 C         138.4347  139.2517  162.2105 C.ar    1  UNL1        0.0366
     18 C         138.0024  140.5443  162.8367 C.ar    1  UNL1        0.1337
     19 O         136.8781  141.3317  162.2315 O.3     1  UNL1       -0.5055
     20 C         138.6942  141.0496  164.0680 C.ar    1  UNL1        0.0364
     21 H         136.4460  141.0161  161.4624 H       1  UNL1        0.2922
     22 C         142.1054  142.1877  164.4252 C.ar    1  UNL1        0.0217
     23 C         142.2745  143.6517  164.1456 C.ar    1  UNL1        0.0026
     24 C         142.7261  144.1091  162.7904 C.ar    1  UNL1        0.0367
     25 C         143.0088  143.1026  161.7147 C.ar    1  UNL1        0.1386
     26 C         142.8397  141.6387  161.9943 C.ar    1  UNL1        0.0367
     27 C         142.3881  141.1812  163.3495 C.ar    1  UNL1        0.0026
     28 O         143.4605  143.5602  160.3594 O.3     1  UNL1       -0.4740
     29 C         142.4807  143.6278  159.2256 C.3     1  UNL1        0.2226
     30 C         141.3431  144.6040  159.2747 C.3     1  UNL1        0.1200
     31 N         140.3843  144.5811  160.4282 N.3     1  UNL1       -0.2693
     32 C         139.5036  143.5410  161.0548 C.3     1  UNL1        0.0764
     33 C         139.0284  144.5486  162.0593 C.3     1  UNL1        0.0673
     34 C         139.9091  145.5887  161.4327 C.3     1  UNL1        0.0764
     35 C         138.0697  144.5256  163.2127 C.3     1  UNL1        0.1959
     36 F         138.5140  144.9940  164.5667 F       1  UNL1       -0.2343
@<TRIPOS>BOND
     1     1     2    1
     2     2     3    2
     3     3    14    1
     4    14    15   ar
     5    15    16   ar
     6    16    17   ar
     7    17    18   ar
     8    18    19    1
     9    18    20   ar
    10     3     4    1
    11     4    22    1
    12    22    23   ar
    13    23    24   ar
    14    24    25   ar
    15    25    28    1
    16    28    29    1
    17    29    30    1
    18    30    31    1
    19    31    32    1
    20    32    33    1
    21    33    35    1
    22    35    36    1
    23    33    34    1
    24    25    26   ar
    25    26    27   ar
    26     4     5    1
    27     5     6    1
    28     6     7   ar
    29     7     8   ar
    30     8     9   ar
    31     9    10    1
    32     9    11   ar
    33    11    12   ar
    34    12     2    1
    35    20    14   ar
    36    27    22   ar
    37    12     6   ar
    38    34    31    1
    39    19    21    1
    40    10    13    1
@<TRIPOS>MOLECULE
*****
 36 40 0 0 0
SMALL
GASTEIGER

@<TRIPOS>ATOM
      1 C         140.2520  139.1208  166.7289 C.3     1  UNL1        0.0309
      2 C         140.2059  140.6159  166.8412 C.2     1  UNL1       -0.0191
      3 C         140.0861  141.4575  165.6054 C.2     1  UNL1        0.0177
      4 C         140.0400  142.9526  165.7177 C.3     1  UNL1        0.2102
      5 O         140.1136  143.6060  167.0658 O.3     1  UNL1       -0.4703
      6 C         140.2334  142.7644  168.3018 C.ar    1  UNL1        0.1391
      7 C         140.3070  143.4179  169.6499 C.ar    1  UNL1        0.0400
      8 C         140.4268  142.5763  170.8857 C.ar    1  UNL1        0.0397
      9 C         140.4729  141.0812  170.7734 C.ar    1  UNL1        0.1339
     10 O         140.5927  140.2396  172.0093 O.3     1  UNL1       -0.5055
     11 C         140.3993  140.4277  169.4253 C.ar    1  UNL1        0.0393
     12 C         140.2795  141.2693  168.1895 C.ar    1  UNL1        0.0329
     13 H         140.6387  140.6478  172.8515 H       1  UNL1        0.2922
     14 C         140.0125  140.8040  164.2572 C.ar    1  UNL1        0.0024
     15 C         141.2631  140.5947  163.4559 C.ar    1  UNL1        0.0000
     16 C         141.1895  139.9412  162.1077 C.ar    1  UNL1        0.0031
     17 C         139.8653  139.4972  161.5609 C.ar    1  UNL1        0.0366
     18 C         138.6146  139.7065  162.3621 C.ar    1  UNL1        0.1337
     19 O         137.2903  139.2624  161.8152 O.3     1  UNL1       -0.5055
     20 C         138.6882  140.3599  163.7103 C.ar    1  UNL1        0.0364
     21 H         137.2444  138.8542  160.9730 H       1  UNL1        0.2922
     22 C         139.9202  143.7942  164.4818 C.ar    1  UNL1        0.0217
     23 C         138.5754  144.0246  163.8587 C.ar    1  UNL1        0.0026
     24 C         138.4556  144.8661  162.6229 C.ar    1  UNL1        0.0367
     25 C         139.6808  145.4773  162.0101 C.ar    1  UNL1        0.1386
     26 C         141.0256  145.2469  162.6332 C.ar    1  UNL1        0.0367
     27 C         141.1453  144.4054  163.8690 C.ar    1  UNL1        0.0026
     28 O         139.5610  146.3189  160.7742 O.3     1  UNL1       -0.4740
     29 C         140.1849  145.8588  159.4901 C.3     1  UNL1        0.2226
     30 C         140.2481  144.3948  159.1694 C.3     1  UNL1        0.1200
     31 N         141.5754  143.7327  158.9456 N.3     1  UNL1       -0.2693
     32 C         142.5589  143.0073  159.8155 C.3     1  UNL1        0.0764
     33 C         143.4524  142.7963  158.6292 C.3     1  UNL1        0.0673
     34 C         142.4689  143.5217  157.7594 C.3     1  UNL1        0.0764
     35 C         144.7796  142.1342  158.4055 C.3     1  UNL1        0.1959
     36 F         145.9995  142.9678  158.1466 F       1  UNL1       -0.2343
@<TRIPOS>BOND
     1     1     2    1
     2     2     3    2
     3     3    14    1
     4    14    15   ar
     5    15    16   ar
     6    16    17   ar
     7    17    18   ar
     8    18    19    1
     9    18    20   ar
    10     3     4    1
    11     4    22    1
    12    22    23   ar
    13    23    24   ar
    14    24    25   ar
    15    25    28    1
    16    28    29    1
    17    29    30    1
    18    30    31    1
    19    31    32    1
    20    32    33    1
    21    33    35    1
    22    35    36    1
    23    33    34    1
    24    25    26   ar
    25    26    27   ar
    26     4     5    1
    27     5     6    1
    28     6     7   ar
    29     7     8   ar
    30     8     9   ar
    31     9    10    1
    32     9    11   ar
    33    11    12   ar
    34    12     2    1
    35    20    14   ar
    36    27    22   ar
    37    12     6   ar
    38    34    31    1
    39    19    21    1
    40    10    13    1
@<TRIPOS>MOLECULE
*****
 36 40 0 0 0
SMALL
GASTEIGER

@<TRIPOS>ATOM
      1 C         143.0704  139.7930  166.9277 C.3     1  UNL1        0.0309
      2 C         142.1540  140.9804  166.9433 C.2     1  UNL1       -0.0191
      3 C         141.8214  141.6880  165.6633 C.2     1  UNL1        0.0177
      4 C         140.9049  142.8754  165.6790 C.3     1  UNL1        0.2102
      5 O         140.3211  143.3552  166.9747 O.3     1  UNL1       -0.4703
      6 C         140.6537  142.6475  168.2548 C.ar    1  UNL1        0.1391
      7 C         140.0699  143.1273  169.5505 C.ar    1  UNL1        0.0400
      8 C         140.4025  142.4197  170.8306 C.ar    1  UNL1        0.0397
      9 C         141.3190  141.2323  170.8149 C.ar    1  UNL1        0.1339
     10 O         141.6516  140.5246  172.0951 O.3     1  UNL1       -0.5055
     11 C         141.9028  140.7525  169.5192 C.ar    1  UNL1        0.0393
     12 C         141.5702  141.4601  168.2392 C.ar    1  UNL1        0.0329
     13 H         141.2869  140.8243  172.9045 H       1  UNL1        0.2922
     14 C         142.4052  141.2082  164.3675 C.ar    1  UNL1        0.0024
     15 C         141.6745  140.1857  163.5487 C.ar    1  UNL1        0.0000
     16 C         142.2582  139.7059  162.2529 C.ar    1  UNL1        0.0031
     17 C         143.5727  140.2487  161.7760 C.ar    1  UNL1        0.0366
     18 C         144.3034  141.2713  162.5948 C.ar    1  UNL1        0.1337
     19 O         145.6179  141.8141  162.1177 O.3     1  UNL1       -0.5055
     20 C         143.7196  141.7510  163.8905 C.ar    1  UNL1        0.0364
     21 H         145.9825  141.5144  161.3083 H       1  UNL1        0.2922
     22 C         140.5723  143.5830  164.3988 C.ar    1  UNL1        0.0217
     23 C         141.4403  144.7070  163.9158 C.ar    1  UNL1        0.0026
     24 C         141.1077  145.4146  162.6357 C.ar    1  UNL1        0.0367
     25 C         139.9071  144.9982  161.8387 C.ar    1  UNL1        0.1386
     26 C         139.0391  143.8742  162.3217 C.ar    1  UNL1        0.0367
     27 C         139.3718  143.1667  163.6018 C.ar    1  UNL1        0.0026
     28 O         139.5745  145.7058  160.5585 O.3     1  UNL1       -0.4740
     29 C         140.4542  145.5336  159.3559 C.3     1  UNL1        0.2226
     30 C         140.1582  144.4528  158.3588 C.3     1  UNL1        0.1200
     31 N         139.6618  143.1166  158.8261 N.3     1  UNL1       -0.2693
     32 C         140.2973  141.9047  159.4404 C.3     1  UNL1        0.0764
     33 C         138.9599  141.2270  159.4871 C.3     1  UNL1        0.0673
     34 C         138.3244  142.4390  158.8728 C.3     1  UNL1        0.0764
     35 C         138.4635  139.8909  159.9544 C.3     1  UNL1        0.1959
     36 F         139.2828  139.0805  160.9146 F       1  UNL1       -0.2343
@<TRIPOS>BOND
     1     1     2    1
     2     2     3    2
     3     3    14    1
     4    14    15   ar
     5    15    16   ar
     6    16    17   ar
     7    17    18   ar
     8    18    19    1
     9    18    20   ar
    10     3     4    1
    11     4    22    1
    12    22    23   ar
    13    23    24   ar
    14    24    25   ar
    15    25    28    1
    16    28    29    1
    17    29    30    1
    18    30    31    1
    19    31    32    1
    20    32    33    1
    21    33    35    1
    22    35    36    1
    23    33    34    1
    24    25    26   ar
    25    26    27   ar
    26     4     5    1
    27     5     6    1
    28     6     7   ar
    29     7     8   ar
    30     8     9   ar
    31     9    10    1
    32     9    11   ar
    33    11    12   ar
    34    12     2    1
    35    20    14   ar
    36    27    22   ar
    37    12     6   ar
    38    34    31    1
    39    19    21    1
    40    10    13    1
@<TRIPOS>MOLECULE
*****
 36 40 0 0 0
SMALL
GASTEIGER

@<TRIPOS>ATOM
      1 C         138.5034  139.2717  167.3122 C.3     1  UNL1        0.0309
      2 C         139.9088  139.7343  167.0656 C.2     1  UNL1       -0.0191
      3 C         140.4485  139.7811  165.6669 C.2     1  UNL1        0.0177
      4 C         141.8539  140.2438  165.4203 C.3     1  UNL1        0.2102
      5 O         142.7197  140.6596  166.5724 O.3     1  UNL1       -0.4703
      6 C         142.1800  140.6128  167.9713 C.ar    1  UNL1        0.1391
      7 C         143.0458  141.0286  169.1234 C.ar    1  UNL1        0.0400
      8 C         142.5061  140.9818  170.5222 C.ar    1  UNL1        0.0397
      9 C         141.1007  140.5192  170.7688 C.ar    1  UNL1        0.1339
     10 O         140.5611  140.4724  172.1676 O.3     1  UNL1       -0.5055
     11 C         140.2350  140.1034  169.6166 C.ar    1  UNL1        0.0393
     12 C         140.7746  140.1502  168.2179 C.ar    1  UNL1        0.0329
     13 H         141.1019  140.7322  172.8873 H       1  UNL1        0.2922
     14 C         139.5827  139.3653  164.5146 C.ar    1  UNL1        0.0024
     15 C         139.6553  137.9618  163.9902 C.ar    1  UNL1        0.0000
     16 C         138.7896  137.5459  162.8381 C.ar    1  UNL1        0.0031
     17 C         137.8514  138.5336  162.2102 C.ar    1  UNL1        0.0366
     18 C         137.7788  139.9370  162.7346 C.ar    1  UNL1        0.1337
     19 O         136.8404  140.9247  162.1067 O.3     1  UNL1       -0.5055
     20 C         138.6445  140.3529  163.8868 C.ar    1  UNL1        0.0364
     21 H         136.2997  140.6649  161.3870 H       1  UNL1        0.2922
     22 C         142.3936  140.2906  164.0214 C.ar    1  UNL1        0.0217
     23 C         141.5323  140.7951  162.9018 C.ar    1  UNL1        0.0026
     24 C         142.0720  140.8419  161.5031 C.ar    1  UNL1        0.0367
     25 C         143.4729  140.3841  161.2240 C.ar    1  UNL1        0.1386
     26 C         144.3341  139.8796  162.3436 C.ar    1  UNL1        0.0367
     27 C         143.7945  139.8328  163.7423 C.ar    1  UNL1        0.0026
     28 O         144.0125  140.4309  159.8251 O.3     1  UNL1       -0.4740
     29 C         144.3839  141.7467  159.2082 C.3     1  UNL1        0.2226
     30 C         143.5643  142.9690  159.4982 C.3     1  UNL1        0.1200
     31 N         143.5720  143.5682  160.8734 N.3     1  UNL1       -0.2693
     32 C         142.6033  144.3785  161.6827 C.3     1  UNL1        0.0764
     33 C         143.5829  144.4157  162.8180 C.3     1  UNL1        0.0673
     34 C         144.5517  143.6055  162.0087 C.3     1  UNL1        0.0764
     35 C         143.5906  145.0149  164.1931 C.3     1  UNL1        0.1959
     36 F         144.5373  144.4935  165.2332 F       1  UNL1       -0.2343
@<TRIPOS>BOND
     1     1     2    1
     2     2     3    2
     3     3    14    1
     4    14    15   ar
     5    15    16   ar
     6    16    17   ar
     7    17    18   ar
     8    18    19    1
     9    18    20   ar
    10     3     4    1
    11     4    22    1
    12    22    23   ar
    13    23    24   ar
    14    24    25   ar
    15    25    28    1
    16    28    29    1
    17    29    30    1
    18    30    31    1
    19    31    32    1
    20    32    33    1
    21    33    35    1
    22    35    36    1
    23    33    34    1
    24    25    26   ar
    25    26    27   ar
    26     4     5    1
    27     5     6    1
    28     6     7   ar
    29     7     8   ar
    30     8     9   ar
    31     9    10    1
    32     9    11   ar
    33    11    12   ar
    34    12     2    1
    35    20    14   ar
    36    27    22   ar
    37    12     6   ar
    38    34    31    1
    39    19    21    1
    40    10    13    1
