@<TRIPOS>MOLECULE
*****
 30 31 0 0 0
SMALL
GASTEIGER

@<TRIPOS>ATOM
      1 C         145.2200  141.5453  162.5467 C.3     1  UNL1        0.1697
      2 O         145.5641  142.5516  161.4890 O.3     1  UNL1       -0.3793
      3 H         145.1219  142.3128  160.6593 H       1  UNL1        0.2106
      4 C         145.7814  141.6895  163.9302 C.3     1  UNL1        0.2358
      5 O         145.2916  142.7870  164.8277 O.3     1  UNL1       -0.4728
      6 C         141.1773  144.5108  164.2350 C.ar    1  UNL1        0.0646
      7 C         141.3423  143.1729  164.8929 C.ar    1  UNL1        0.0190
      8 C         142.7137  142.5983  165.0904 C.ar    1  UNL1        0.0382
      9 C         143.9202  143.3616  164.6301 C.ar    1  UNL1        0.1388
     10 C         143.7552  144.6995  163.9723 C.ar    1  UNL1        0.0382
     11 C         142.3837  145.2740  163.7747 C.ar    1  UNL1        0.0190
     12 N         139.8059  145.0854  164.0374 N.pl3   1  UNL1       -0.2187
     13 H         139.6134  146.0083  164.3209 H       1  UNL1        0.1734
     14 C         137.6498  143.4222  162.7784 C.3     1  UNL1        0.1996
     15 S         138.7278  144.2538  163.4080 S.O2    1  UNL1        0.0558
     16 O         139.4649  144.2869  162.1020 O.2     1  UNL1       -0.1544
     17 O         137.9908  144.2208  164.7140 O.2     1  UNL1       -0.1544
     18 C         144.3144  140.3946  162.2209 C.3     1  UNL1        0.1021
     19 N         144.3622  139.1449  163.0491 N.3     1  UNL1       -0.2951
     20 H         145.1630  139.2363  163.6742 H       1  UNL1        0.1233
     21 C         143.1883  138.7650  163.9020 C.3     1  UNL1        0.0734
     22 C         143.3741  138.5286  165.3715 C.3     1  UNL1        0.0435
     23 C         142.3645  139.0531  166.3491 C.ar    1  UNL1       -0.0185
     24 C         142.7570  139.2925  167.7769 C.ar    1  UNL1       -0.0032
     25 C         141.7473  139.8170  168.7544 C.ar    1  UNL1        0.0133
     26 C         140.3452  140.1020  168.3041 C.ar    1  UNL1        0.0850
     27 CL        139.3356  140.6265  169.2817 Cl      1  UNL1       -0.0799
     28 C         139.9527  139.8626  166.8763 C.ar    1  UNL1        0.1503
     29 F         138.5506  140.1477  166.4261 F       1  UNL1       -0.2033
     30 C         140.9623  139.3382  165.8988 C.ar    1  UNL1        0.0263
@<TRIPOS>BOND
     1    14    15    1
     2    15    16    2
     3    15    17    2
     4    15    12    1
     5    12     6    1
     6     6     7   ar
     7     7     8   ar
     8     8     9   ar
     9     9     5    1
    10     5     4    1
    11     4     1    1
    12     1     2    1
    13     1    18    1
    14    18    19    1
    15    19    21    1
    16    21    22    1
    17    22    23    1
    18    23    24   ar
    19    24    25   ar
    20    25    26   ar
    21    26    27    1
    22    26    28   ar
    23    28    29    1
    24    28    30   ar
    25     9    10   ar
    26    10    11   ar
    27    11     6   ar
    28    30    23   ar
    29    12    13    1
    30     2     3    1
    31    19    20    1
@<TRIPOS>MOLECULE
*****
 30 31 0 0 0
SMALL
GASTEIGER

@<TRIPOS>ATOM
      1 C         137.8078  141.3104  162.4351 C.3     1  UNL1        0.1697
      2 O         136.5122  141.3121  163.1910 O.3     1  UNL1       -0.3793
      3 H         136.1181  142.1976  163.1552 H       1  UNL1        0.2106
      4 C         138.6188  140.0522  162.3395 C.3     1  UNL1        0.2358
      5 O         138.4874  138.9933  163.3937 O.3     1  UNL1       -0.4728
      6 C         140.1026  139.7234  167.5299 C.ar    1  UNL1        0.0646
      7 C         141.0413  139.6309  166.3637 C.ar    1  UNL1        0.0190
      8 C         140.5029  139.3875  164.9850 C.ar    1  UNL1        0.0382
      9 C         139.0258  139.2366  164.7724 C.ar    1  UNL1        0.1388
     10 C         138.0870  139.3291  165.9387 C.ar    1  UNL1        0.0382
     11 C         138.6254  139.5725  167.3174 C.ar    1  UNL1        0.0190
     12 N         140.6409  139.9667  168.9087 N.pl3   1  UNL1       -0.2187
     13 H         141.2777  139.3307  169.3078 H       1  UNL1        0.1734
     14 C         139.7774  142.3914  170.4498 C.3     1  UNL1        0.1996
     15 S         140.2092  141.1790  169.6792 S.O2    1  UNL1        0.0558
     16 O         140.7902  142.0623  168.6152 O.2     1  UNL1       -0.1544
     17 O         139.6281  140.2958  170.7432 O.2     1  UNL1       -0.1544
     18 C         138.2925  142.5671  161.7748 C.3     1  UNL1        0.1021
     19 N         137.6969  143.8908  162.1531 N.3     1  UNL1       -0.2951
     20 H         136.9394  143.6965  162.8080 H       1  UNL1        0.1233
     21 C         138.5552  144.9464  162.7847 C.3     1  UNL1        0.0734
     22 C         139.0998  144.7421  164.1673 C.3     1  UNL1        0.0435
     23 C         140.5371  144.3575  164.3579 C.ar    1  UNL1       -0.0185
     24 C         140.8925  143.1975  165.2401 C.ar    1  UNL1       -0.0032
     25 C         142.3297  142.8130  165.4307 C.ar    1  UNL1        0.0133
     26 C         143.4116  143.5884  164.7391 C.ar    1  UNL1        0.0850
     27 CL        144.8490  143.2038  164.9298 Cl      1  UNL1       -0.0799
     28 C         143.0563  144.7483  163.8570 C.ar    1  UNL1        0.1503
     29 F         144.1382  145.5237  163.1655 F       1  UNL1       -0.2033
     30 C         141.6190  145.1329  163.6664 C.ar    1  UNL1        0.0263
@<TRIPOS>BOND
     1    14    15    1
     2    15    16    2
     3    15    17    2
     4    15    12    1
     5    12     6    1
     6     6     7   ar
     7     7     8   ar
     8     8     9   ar
     9     9     5    1
    10     5     4    1
    11     4     1    1
    12     1     2    1
    13     1    18    1
    14    18    19    1
    15    19    21    1
    16    21    22    1
    17    22    23    1
    18    23    24   ar
    19    24    25   ar
    20    25    26   ar
    21    26    27    1
    22    26    28   ar
    23    28    29    1
    24    28    30   ar
    25     9    10   ar
    26    10    11   ar
    27    11     6   ar
    28    30    23   ar
    29    12    13    1
    30     2     3    1
    31    19    20    1
@<TRIPOS>MOLECULE
*****
 30 31 0 0 0
SMALL
GASTEIGER

@<TRIPOS>ATOM
      1 C         137.9472  142.2011  161.8354 C.3     1  UNL1        0.1697
      2 O         138.2935  143.6106  161.4568 O.3     1  UNL1       -0.3793
      3 H         138.5839  143.6348  160.5316 H       1  UNL1        0.2106
      4 C         137.4676  141.8934  163.2230 C.3     1  UNL1        0.2358
      5 O         137.6594  140.5204  163.7956 O.3     1  UNL1       -0.4728
      6 C         139.6009  140.0134  167.8235 C.ar    1  UNL1        0.0646
      7 C         139.9829  141.1691  166.9469 C.ar    1  UNL1        0.0190
      8 C         139.3357  141.3381  165.6043 C.ar    1  UNL1        0.0382
      9 C         138.3066  140.3514  165.1382 C.ar    1  UNL1        0.1388
     10 C         137.9246  139.1957  166.0148 C.ar    1  UNL1        0.0382
     11 C         138.5718  139.0267  167.3574 C.ar    1  UNL1        0.0190
     12 N         140.2481  139.8444  169.1661 N.pl3   1  UNL1       -0.2187
     13 H         140.5814  138.9608  169.4442 H       1  UNL1        0.1734
     14 C         140.5267  142.1991  171.0041 C.3     1  UNL1        0.1996
     15 S         140.3874  141.0217  170.0851 S.O2    1  UNL1        0.0558
     16 O         138.9026  141.0317  170.2974 O.2     1  UNL1       -0.1544
     17 O         141.8722  141.0118  169.8727 O.2     1  UNL1       -0.1544
     18 C         138.0805  141.0991  160.8264 C.3     1  UNL1        0.1021
     19 N         137.1972  139.8901  160.9151 N.3     1  UNL1       -0.2951
     20 H         136.8383  139.7180  159.9760 H       1  UNL1        0.1233
     21 C         137.7546  138.5887  161.4109 C.3     1  UNL1        0.0734
     22 C         139.2230  138.3075  161.2908 C.3     1  UNL1        0.0435
     23 C         140.1065  138.4043  162.4992 C.ar    1  UNL1       -0.0185
     24 C         140.0433  137.3469  163.5612 C.ar    1  UNL1       -0.0032
     25 C         140.9267  137.4438  164.7695 C.ar    1  UNL1        0.0133
     26 C         141.8734  138.5981  164.9159 C.ar    1  UNL1        0.0850
     27 CL        142.7568  138.6949  166.1243 Cl      1  UNL1       -0.0799
     28 C         141.9366  139.6555  163.8539 C.ar    1  UNL1        0.1503
     29 F         142.8833  140.8098  164.0003 F       1  UNL1       -0.2033
     30 C         141.0532  139.5586  162.6456 C.ar    1  UNL1        0.0263
@<TRIPOS>BOND
     1    14    15    1
     2    15    16    2
     3    15    17    2
     4    15    12    1
     5    12     6    1
     6     6     7   ar
     7     7     8   ar
     8     8     9   ar
     9     9     5    1
    10     5     4    1
    11     4     1    1
    12     1     2    1
    13     1    18    1
    14    18    19    1
    15    19    21    1
    16    21    22    1
    17    22    23    1
    18    23    24   ar
    19    24    25   ar
    20    25    26   ar
    21    26    27    1
    22    26    28   ar
    23    28    29    1
    24    28    30   ar
    25     9    10   ar
    26    10    11   ar
    27    11     6   ar
    28    30    23   ar
    29    12    13    1
    30     2     3    1
    31    19    20    1
@<TRIPOS>MOLECULE
*****
 30 31 0 0 0
SMALL
GASTEIGER

@<TRIPOS>ATOM
      1 C         143.6273  138.3475  162.3248 C.3     1  UNL1        0.1697
      2 O         144.5522  137.6795  161.3509 O.3     1  UNL1       -0.3793
      3 H         144.0316  137.2279  160.6683 H       1  UNL1        0.2106
      4 C         144.1875  139.1184  163.4831 C.3     1  UNL1        0.2358
      5 O         143.5070  140.3710  163.9498 O.3     1  UNL1       -0.4728
      6 C         142.5666  140.9283  168.3150 C.ar    1  UNL1        0.0646
      7 C         142.6246  139.5481  167.7305 C.ar    1  UNL1        0.0190
      8 C         142.9381  139.3624  166.2755 C.ar    1  UNL1        0.0382
      9 C         143.1935  140.5568  165.4049 C.ar    1  UNL1        0.1388
     10 C         143.1355  141.9370  165.9893 C.ar    1  UNL1        0.0382
     11 C         142.8221  142.1228  167.4444 C.ar    1  UNL1        0.0190
     12 N         142.2532  141.1141  169.7701 N.pl3   1  UNL1       -0.2187
     13 H         142.8149  140.6823  170.4537 H       1  UNL1        0.1734
     14 C         139.9145  142.8013  170.5972 C.3     1  UNL1        0.1996
     15 S         141.0839  141.9577  170.1837 S.O2    1  UNL1        0.0558
     16 O         140.1476  140.9662  169.5590 O.2     1  UNL1       -0.1544
     17 O         142.0202  142.9491  170.8084 O.2     1  UNL1       -0.1544
     18 C         142.1422  138.2446  162.1403 C.3     1  UNL1        0.1021
     19 N         141.3848  137.1137  162.7707 N.3     1  UNL1       -0.2951
     20 H         142.0402  136.3383  162.8680 H       1  UNL1        0.1233
     21 C         140.7340  137.3010  164.1091 C.3     1  UNL1        0.0734
     22 C         139.2960  137.7199  164.1918 C.3     1  UNL1        0.0435
     23 C         138.9437  139.1733  164.3086 C.ar    1  UNL1       -0.0185
     24 C         138.0335  139.8079  163.2993 C.ar    1  UNL1       -0.0032
     25 C         137.6813  141.2612  163.4162 C.ar    1  UNL1        0.0133
     26 C         138.2393  142.0800  164.5423 C.ar    1  UNL1        0.0850
     27 CL        137.8870  143.5334  164.6591 Cl      1  UNL1       -0.0799
     28 C         139.1496  141.4454  165.5516 C.ar    1  UNL1        0.1503
     29 F         139.7076  142.2642  166.6778 F       1  UNL1       -0.2033
     30 C         139.5018  139.9921  165.4348 C.ar    1  UNL1        0.0263
@<TRIPOS>BOND
     1    14    15    1
     2    15    16    2
     3    15    17    2
     4    15    12    1
     5    12     6    1
     6     6     7   ar
     7     7     8   ar
     8     8     9   ar
     9     9     5    1
    10     5     4    1
    11     4     1    1
    12     1     2    1
    13     1    18    1
    14    18    19    1
    15    19    21    1
    16    21    22    1
    17    22    23    1
    18    23    24   ar
    19    24    25   ar
    20    25    26   ar
    21    26    27    1
    22    26    28   ar
    23    28    29    1
    24    28    30   ar
    25     9    10   ar
    26    10    11   ar
    27    11     6   ar
    28    30    23   ar
    29    12    13    1
    30     2     3    1
    31    19    20    1
@<TRIPOS>MOLECULE
*****
 30 31 0 0 0
SMALL
GASTEIGER

@<TRIPOS>ATOM
      1 C         140.3729  144.8691  162.3514 C.3     1  UNL1        0.1697
      2 O         139.2598  145.6269  161.6907 O.3     1  UNL1       -0.3793
      3 H         139.5617  145.9615  160.8317 H       1  UNL1        0.2106
      4 C         140.1598  144.2470  163.6996 C.3     1  UNL1        0.2358
      5 O         139.4385  142.9370  163.8155 O.3     1  UNL1       -0.4728
      6 C         139.7207  140.5414  167.6144 C.ar    1  UNL1        0.0646
      7 C         139.0403  139.9607  166.4104 C.ar    1  UNL1        0.0190
      8 C         138.9462  140.7593  165.1441 C.ar    1  UNL1        0.0382
      9 C         139.5326  142.1385  165.0818 C.ar    1  UNL1        0.1388
     10 C         140.2130  142.7192  166.2859 C.ar    1  UNL1        0.0382
     11 C         140.3071  141.9207  167.5522 C.ar    1  UNL1        0.0190
     12 N         139.8148  139.7429  168.8807 N.pl3   1  UNL1       -0.2187
     13 H         139.4988  138.8107  168.8995 H       1  UNL1        0.1734
     14 C         140.9659  140.9866  171.3563 C.3     1  UNL1        0.1996
     15 S         140.3904  140.3647  170.1185 S.O2    1  UNL1        0.0558
     16 O         139.0577  140.9789  170.4296 O.2     1  UNL1       -0.1544
     17 O         141.7230  139.7506  169.8074 O.2     1  UNL1       -0.1544
     18 C         141.6993  144.7334  161.6640 C.3     1  UNL1        0.1021
     19 N         142.9553  145.1542  162.3679 N.3     1  UNL1       -0.2951
     20 H         142.6680  145.6604  163.2055 H       1  UNL1        0.1233
     21 C         143.9512  144.1217  162.8062 C.3     1  UNL1        0.0734
     22 C         143.8534  143.5194  164.1764 C.3     1  UNL1        0.0435
     23 C         143.3419  142.1194  164.3455 C.ar    1  UNL1       -0.0185
     24 C         142.6559  141.4286  163.2044 C.ar    1  UNL1       -0.0032
     25 C         142.1445  140.0287  163.3736 C.ar    1  UNL1        0.0133
     26 C         142.3191  139.3196  164.6838 C.ar    1  UNL1        0.0850
     27 CL        141.8076  137.9196  164.8529 Cl      1  UNL1       -0.0799
     28 C         143.0051  140.0104  165.8249 C.ar    1  UNL1        0.1503
     29 F         143.1797  139.3013  167.1351 F       1  UNL1       -0.2033
     30 C         143.5165  141.4103  165.6557 C.ar    1  UNL1        0.0263
@<TRIPOS>BOND
     1    14    15    1
     2    15    16    2
     3    15    17    2
     4    15    12    1
     5    12     6    1
     6     6     7   ar
     7     7     8   ar
     8     8     9   ar
     9     9     5    1
    10     5     4    1
    11     4     1    1
    12     1     2    1
    13     1    18    1
    14    18    19    1
    15    19    21    1
    16    21    22    1
    17    22    23    1
    18    23    24   ar
    19    24    25   ar
    20    25    26   ar
    21    26    27    1
    22    26    28   ar
    23    28    29    1
    24    28    30   ar
    25     9    10   ar
    26    10    11   ar
    27    11     6   ar
    28    30    23   ar
    29    12    13    1
    30     2     3    1
    31    19    20    1
@<TRIPOS>MOLECULE
*****
 30 31 0 0 0
SMALL
GASTEIGER

@<TRIPOS>ATOM
      1 C         137.8154  141.3333  162.3837 C.3     1  UNL1        0.1697
      2 O         136.5775  141.3662  163.2302 O.3     1  UNL1       -0.3793
      3 H         136.1178  142.2100  163.0980 H       1  UNL1        0.2106
      4 C         138.7084  140.1283  162.4074 C.3     1  UNL1        0.2358
      5 O         139.8776  140.0797  163.3457 O.3     1  UNL1       -0.4728
      6 C         139.1910  139.9294  167.7905 C.ar    1  UNL1        0.0646
      7 C         138.4859  138.9594  166.8894 C.ar    1  UNL1        0.0190
      8 C         138.7147  139.0096  165.4079 C.ar    1  UNL1        0.0382
      9 C         139.6488  140.0296  164.8273 C.ar    1  UNL1        0.1388
     10 C         140.3539  140.9995  165.7284 C.ar    1  UNL1        0.0382
     11 C         140.1250  140.9494  167.2100 C.ar    1  UNL1        0.0190
     12 N         138.9621  139.8792  169.2721 N.pl3   1  UNL1       -0.2187
     13 H         138.1581  139.4390  169.6314 H       1  UNL1        0.1734
     14 C         140.9543  141.1203  171.1405 C.3     1  UNL1        0.1996
     15 S         139.9582  140.4997  170.2063 S.O2    1  UNL1        0.0558
     16 O         139.0337  141.6614  170.4204 O.2     1  UNL1       -0.1544
     17 O         140.8827  139.3381  169.9922 O.2     1  UNL1       -0.1544
     18 C         138.1602  142.5053  161.5133 C.3     1  UNL1        0.1021
     19 N         138.3184  143.8684  162.1190 N.3     1  UNL1       -0.2951
     20 H         138.2937  143.7455  163.1313 H       1  UNL1        0.1233
     21 C         139.5360  144.6889  161.8120 C.3     1  UNL1        0.0734
     22 C         140.4813  145.0691  162.9128 C.3     1  UNL1        0.0435
     23 C         141.6468  144.1832  163.2399 C.ar    1  UNL1       -0.0185
     24 C         141.7919  142.8536  162.5611 C.ar    1  UNL1       -0.0032
     25 C         142.9574  141.9678  162.8882 C.ar    1  UNL1        0.0133
     26 C         143.9777  142.4116  163.8942 C.ar    1  UNL1        0.0850
     27 CL        145.1432  141.5258  164.2213 Cl      1  UNL1       -0.0799
     28 C         143.8325  143.7413  164.5730 C.ar    1  UNL1        0.1503
     29 F         144.8528  144.1852  165.5790 F       1  UNL1       -0.2033
     30 C         142.6671  144.6271  164.2459 C.ar    1  UNL1        0.0263
@<TRIPOS>BOND
     1    14    15    1
     2    15    16    2
     3    15    17    2
     4    15    12    1
     5    12     6    1
     6     6     7   ar
     7     7     8   ar
     8     8     9   ar
     9     9     5    1
    10     5     4    1
    11     4     1    1
    12     1     2    1
    13     1    18    1
    14    18    19    1
    15    19    21    1
    16    21    22    1
    17    22    23    1
    18    23    24   ar
    19    24    25   ar
    20    25    26   ar
    21    26    27    1
    22    26    28   ar
    23    28    29    1
    24    28    30   ar
    25     9    10   ar
    26    10    11   ar
    27    11     6   ar
    28    30    23   ar
    29    12    13    1
    30     2     3    1
    31    19    20    1
@<TRIPOS>MOLECULE
*****
 30 31 0 0 0
SMALL
GASTEIGER

@<TRIPOS>ATOM
      1 C         145.1576  141.7914  162.6880 C.3     1  UNL1        0.1697
      2 O         146.5578  141.7954  163.2257 O.3     1  UNL1       -0.3793
      3 H         146.8800  140.8831  163.2954 H       1  UNL1        0.2106
      4 C         144.4285  143.0865  162.4848 C.3     1  UNL1        0.2358
      5 O         144.0754  143.9416  163.6655 O.3     1  UNL1       -0.4728
      6 C         141.2004  142.4126  166.7715 C.ar    1  UNL1        0.0646
      7 C         140.6891  143.1854  165.5920 C.ar    1  UNL1        0.0190
      8 C         141.6474  143.6951  164.5566 C.ar    1  UNL1        0.0382
      9 C         143.1170  143.4319  164.7008 C.ar    1  UNL1        0.1388
     10 C         143.6284  142.6591  165.8804 C.ar    1  UNL1        0.0382
     11 C         142.6700  142.1495  166.9157 C.ar    1  UNL1        0.0190
     12 N         140.2421  141.9030  167.8068 N.pl3   1  UNL1       -0.2187
     13 H         139.4076  141.4601  167.5296 H       1  UNL1        0.1734
     14 C         140.8681  142.2332  170.7221 C.3     1  UNL1        0.1996
     15 S         140.5551  142.0681  169.2644 S.O2    1  UNL1        0.0558
     16 O         140.3485  143.5486  169.1411 O.2     1  UNL1       -0.1544
     17 O         140.7617  140.5875  169.3877 O.2     1  UNL1       -0.1544
     18 C         144.4863  140.4924  162.3533 C.3     1  UNL1        0.1021
     19 N         144.7466  139.2759  163.1914 N.3     1  UNL1       -0.2951
     20 H         145.7388  139.0595  163.0961 H       1  UNL1        0.1233
     21 C         144.4479  139.2998  164.6612 C.3     1  UNL1        0.0734
     22 C         143.2613  138.5554  165.1975 C.3     1  UNL1        0.0435
     23 C         141.9481  138.6167  164.4749 C.ar    1  UNL1       -0.0185
     24 C         141.2425  137.3494  164.0928 C.ar    1  UNL1       -0.0032
     25 C         139.9295  137.4107  163.3702 C.ar    1  UNL1        0.0133
     26 C         139.3221  138.7393  163.0298 C.ar    1  UNL1        0.0850
     27 CL        138.0090  138.8006  162.3072 Cl      1  UNL1       -0.0799
     28 C         140.0277  140.0066  163.4120 C.ar    1  UNL1        0.1503
     29 F         139.4202  141.3352  163.0716 F       1  UNL1       -0.2033
     30 C         141.3407  139.9453  164.1345 C.ar    1  UNL1        0.0263
@<TRIPOS>BOND
     1    14    15    1
     2    15    16    2
     3    15    17    2
     4    15    12    1
     5    12     6    1
     6     6     7   ar
     7     7     8   ar
     8     8     9   ar
     9     9     5    1
    10     5     4    1
    11     4     1    1
    12     1     2    1
    13     1    18    1
    14    18    19    1
    15    19    21    1
    16    21    22    1
    17    22    23    1
    18    23    24   ar
    19    24    25   ar
    20    25    26   ar
    21    26    27    1
    22    26    28   ar
    23    28    29    1
    24    28    30   ar
    25     9    10   ar
    26    10    11   ar
    27    11     6   ar
    28    30    23   ar
    29    12    13    1
    30     2     3    1
    31    19    20    1
@<TRIPOS>MOLECULE
*****
 30 31 0 0 0
SMALL
GASTEIGER

@<TRIPOS>ATOM
      1 C         137.7123  142.9503  162.9112 C.3     1  UNL1        0.1697
      2 O         137.5816  143.4741  161.5117 O.3     1  UNL1       -0.3793
      3 H         137.6693  144.4401  161.5185 H       1  UNL1        0.2106
      4 C         137.6130  141.4766  163.1728 C.3     1  UNL1        0.2358
      5 O         138.8049  140.7240  163.6856 O.3     1  UNL1       -0.4728
      6 C         139.2433  139.9381  168.0947 C.ar    1  UNL1        0.0646
      7 C         138.2648  139.1407  167.2844 C.ar    1  UNL1        0.0190
      8 C         138.1186  139.4027  165.8147 C.ar    1  UNL1        0.0382
      9 C         138.9510  140.4620  165.1553 C.ar    1  UNL1        0.1388
     10 C         139.9295  141.2594  165.9656 C.ar    1  UNL1        0.0382
     11 C         140.0757  140.9974  167.4353 C.ar    1  UNL1        0.0190
     12 N         139.3894  139.6761  169.5644 N.pl3   1  UNL1       -0.2187
     13 H         138.8039  139.0208  170.0082 H       1  UNL1        0.1734
     14 C         141.4660  141.1490  171.1514 C.3     1  UNL1        0.1996
     15 S         140.4277  140.4125  170.3579 S.O2    1  UNL1        0.0558
     16 O         141.4221  139.3292  170.0623 O.2     1  UNL1       -0.1544
     17 O         139.4333  141.4959  170.6534 O.2     1  UNL1       -0.1544
     18 C         137.9422  143.9002  164.0491 C.3     1  UNL1        0.1021
     19 N         139.3333  144.3559  164.3764 N.3     1  UNL1       -0.2951
     20 H         139.8154  143.5571  164.7886 H       1  UNL1        0.1233
     21 C         140.2234  144.8862  163.2918 C.3     1  UNL1        0.0734
     22 C         141.7024  144.6429  163.3493 C.3     1  UNL1        0.0435
     23 C         142.2262  143.3045  163.7788 C.ar    1  UNL1       -0.0185
     24 C         143.0301  143.1830  165.0393 C.ar    1  UNL1       -0.0032
     25 C         143.5538  141.8446  165.4687 C.ar    1  UNL1        0.0133
     26 C         143.2736  140.6277  164.6376 C.ar    1  UNL1        0.0850
     27 CL        143.7973  139.2893  165.0671 Cl      1  UNL1       -0.0799
     28 C         142.4696  140.7492  163.3771 C.ar    1  UNL1        0.1503
     29 F         142.1894  139.5324  162.5460 F       1  UNL1       -0.2033
     30 C         141.9460  142.0876  162.9477 C.ar    1  UNL1        0.0263
@<TRIPOS>BOND
     1    14    15    1
     2    15    16    2
     3    15    17    2
     4    15    12    1
     5    12     6    1
     6     6     7   ar
     7     7     8   ar
     8     8     9   ar
     9     9     5    1
    10     5     4    1
    11     4     1    1
    12     1     2    1
    13     1    18    1
    14    18    19    1
    15    19    21    1
    16    21    22    1
    17    22    23    1
    18    23    24   ar
    19    24    25   ar
    20    25    26   ar
    21    26    27    1
    22    26    28   ar
    23    28    29    1
    24    28    30   ar
    25     9    10   ar
    26    10    11   ar
    27    11     6   ar
    28    30    23   ar
    29    12    13    1
    30     2     3    1
    31    19    20    1
@<TRIPOS>MOLECULE
*****
 30 31 0 0 0
SMALL
GASTEIGER

@<TRIPOS>ATOM
      1 C         137.9799  143.1764  162.5032 C.3     1  UNL1        0.1697
      2 O         137.3662  144.5444  162.5440 O.3     1  UNL1       -0.3793
      3 H         137.8693  145.1418  161.9688 H       1  UNL1        0.2106
      4 C         137.3842  142.0627  163.3124 C.3     1  UNL1        0.2358
      5 O         138.1919  140.8330  163.6049 O.3     1  UNL1       -0.4728
      6 C         139.6716  140.0541  167.7826 C.ar    1  UNL1        0.0646
      7 C         140.1871  141.2333  167.0121 C.ar    1  UNL1        0.0190
      8 C         139.6939  141.4929  165.6195 C.ar    1  UNL1        0.0382
      9 C         138.6851  140.5734  164.9975 C.ar    1  UNL1        0.1388
     10 C         138.1696  139.3943  165.7681 C.ar    1  UNL1        0.0382
     11 C         138.6629  139.1346  167.1606 C.ar    1  UNL1        0.0190
     12 N         140.1648  139.7945  169.1752 N.pl3   1  UNL1       -0.2187
     13 H         140.3458  138.8726  169.4695 H       1  UNL1        0.1734
     14 C         140.5999  142.0845  171.0638 C.3     1  UNL1        0.1996
     15 S         140.3824  140.9395  170.1195 S.O2    1  UNL1        0.0558
     16 O         138.8986  141.1263  170.2348 O.2     1  UNL1       -0.1544
     17 O         141.8662  140.7527  170.0042 O.2     1  UNL1       -0.1544
     18 C         139.1894  142.9220  161.6532 C.3     1  UNL1        0.1021
     19 N         140.4980  143.5692  161.9979 N.3     1  UNL1       -0.2951
     20 H         140.4167  143.9047  162.9577 H       1  UNL1        0.1233
     21 C         141.7694  142.7770  161.9223 C.3     1  UNL1        0.0734
     22 C         141.7205  141.2778  161.9283 C.3     1  UNL1        0.0435
     23 C         142.1461  140.5183  163.1498 C.ar    1  UNL1       -0.0185
     24 C         143.1223  141.1296  164.1107 C.ar    1  UNL1       -0.0032
     25 C         143.5480  140.3701  165.3321 C.ar    1  UNL1        0.0133
     26 C         142.9974  138.9993  165.5927 C.ar    1  UNL1        0.0850
     27 CL        143.4231  138.2398  166.8142 Cl      1  UNL1       -0.0799
     28 C         142.0212  138.3880  164.6318 C.ar    1  UNL1        0.1503
     29 F         141.4707  137.0173  164.8924 F       1  UNL1       -0.2033
     30 C         141.5956  139.1475  163.4103 C.ar    1  UNL1        0.0263
@<TRIPOS>BOND
     1    14    15    1
     2    15    16    2
     3    15    17    2
     4    15    12    1
     5    12     6    1
     6     6     7   ar
     7     7     8   ar
     8     8     9   ar
     9     9     5    1
    10     5     4    1
    11     4     1    1
    12     1     2    1
    13     1    18    1
    14    18    19    1
    15    19    21    1
    16    21    22    1
    17    22    23    1
    18    23    24   ar
    19    24    25   ar
    20    25    26   ar
    21    26    27    1
    22    26    28   ar
    23    28    29    1
    24    28    30   ar
    25     9    10   ar
    26    10    11   ar
    27    11     6   ar
    28    30    23   ar
    29    12    13    1
    30     2     3    1
    31    19    20    1
