@<TRIPOS>MOLECULE
*****
 29 32 0 0 0
SMALL
GASTEIGER

@<TRIPOS>ATOM
      1 O         141.9421  139.7447  160.3734 O.2     1  UNL1       -0.2650
      2 C         142.5378  138.3841  160.1642 C.2     1  UNL1        0.3013
      3 N         142.8281  137.5031  161.3430 N.am    1  UNL1       -0.2985
      4 H         143.2191  136.6101  161.2057 H       1  UNL1        0.1498
      5 C         142.5226  137.9828  162.7311 C.3     1  UNL1        0.0748
      6 C         141.2306  137.5993  163.3897 C.3     1  UNL1        0.0369
      7 C         140.9251  138.0790  164.7777 C.3     1  UNL1        0.0737
      8 N         141.9116  138.9421  165.5071 N.3     1  UNL1       -0.2738
      9 C         143.2035  139.3255  164.8485 C.3     1  UNL1        0.0737
     10 C         143.5090  138.8459  163.4605 C.3     1  UNL1        0.0369
     11 C         141.6061  139.4217  166.8952 C.3     1  UNL1        0.0575
     12 C         142.6912  139.4641  167.9299 C.3     1  UNL1        0.0160
     13 C         142.3857  139.9437  169.3179 C.3     1  UNL1        0.0014
     14 C         140.9950  140.3810  169.6712 C.3     1  UNL1        0.0001
     15 C         139.9098  140.3386  168.6364 C.3     1  UNL1        0.0014
     16 C         140.2154  139.8589  167.2484 C.3     1  UNL1        0.0160
     17 C         142.8434  137.9044  158.7762 C.ar    1  UNL1        0.3040
     18 N         143.4480  138.7226  157.6739 N.ar    1  UNL1       -0.1021
     19 N         143.5763  137.8463  156.4631 N.ar    1  UNL1       -0.1067
     20 C         143.0508  136.4866  156.8173 C.ar    1  UNL1        0.2523
     21 O         142.5979  136.5226  158.2468 O.2     1  UNL1       -0.4122
     22 C         142.9892  135.2995  155.9026 C.ar    1  UNL1        0.0827
     23 C         142.3134  135.4149  154.5684 C.ar    1  UNL1        0.0093
     24 C         142.2517  134.2278  153.6537 C.ar    1  UNL1        0.0299
     25 C         142.8659  132.9251  154.0730 C.ar    1  UNL1        0.1424
     26 F         142.8043  131.7379  153.1582 F       1  UNL1       -0.2041
     27 C         143.5418  132.8096  155.4072 C.ar    1  UNL1        0.0594
     28 C         143.6034  133.9968  156.3219 C.ar    1  UNL1        0.1469
     29 F         144.2793  133.8813  157.6561 F       1  UNL1       -0.2039
@<TRIPOS>BOND
     1     1     2    2
     2     2     3   am
     3     3     5    1
     4     5     6    1
     5     6     7    1
     6     7     8    1
     7     8    11    1
     8    11    12    1
     9    12    13    1
    10    13    14    1
    11    14    15    1
    12    15    16    1
    13     8     9    1
    14     9    10    1
    15     2    17    1
    16    17    18   ar
    17    18    19   ar
    18    19    20   ar
    19    20    22    1
    20    22    23   ar
    21    23    24   ar
    22    24    25   ar
    23    25    26    1
    24    25    27   ar
    25    27    28   ar
    26    28    29    1
    27    20    21   ar
    28    10     5    1
    29    21    17   ar
    30    16    11    1
    31    28    22   ar
    32     3     4    1
@<TRIPOS>MOLECULE
*****
 29 32 0 0 0
SMALL
GASTEIGER

@<TRIPOS>ATOM
      1 O         141.9875  139.6302  160.0944 O.2     1  UNL1       -0.2650
      2 C         142.5027  138.2303  159.9374 C.2     1  UNL1        0.3013
      3 N         142.6951  137.3620  161.1453 N.am    1  UNL1       -0.2985
      4 H         143.0333  136.4432  161.0422 H       1  UNL1        0.1498
      5 C         142.3722  137.8937  162.5103 C.3     1  UNL1        0.0748
      6 C         143.3763  138.7303  163.2462 C.3     1  UNL1        0.0369
      7 C         143.0534  139.2619  164.6111 C.3     1  UNL1        0.0737
      8 N         141.7262  138.9569  165.2401 N.3     1  UNL1       -0.2738
      9 C         140.7220  138.1202  164.5042 C.3     1  UNL1        0.0737
     10 C         141.0450  137.5886  163.1393 C.3     1  UNL1        0.0369
     11 C         141.4033  139.4885  166.6051 C.3     1  UNL1        0.0575
     12 C         139.9766  139.7404  166.9937 C.3     1  UNL1        0.0160
     13 C         139.6536  140.2721  168.3587 C.3     1  UNL1        0.0014
     14 C         140.7574  140.5518  169.3351 C.3     1  UNL1        0.0001
     15 C         142.1842  140.2998  168.9465 C.3     1  UNL1        0.0014
     16 C         142.5071  139.7682  167.5815 C.3     1  UNL1        0.0160
     17 C         142.8257  137.6987  158.5724 C.ar    1  UNL1        0.3040
     18 N         143.4115  138.4838  157.4364 N.ar    1  UNL1       -0.1021
     19 N         143.5674  137.5589  156.2657 N.ar    1  UNL1       -0.1067
     20 C         143.0779  136.2023  156.6783 C.ar    1  UNL1        0.2523
     21 O         142.6196  136.2887  158.1039 O.2     1  UNL1       -0.4122
     22 C         143.0515  134.9750  155.8165 C.ar    1  UNL1        0.0827
     23 C         143.7596  133.7300  156.2624 C.ar    1  UNL1        0.0093
     24 C         143.7332  132.5026  155.4006 C.ar    1  UNL1        0.0299
     25 C         142.9986  132.5200  154.0929 C.ar    1  UNL1        0.1424
     26 F         142.9722  131.2926  153.2311 F       1  UNL1       -0.2041
     27 C         142.2905  133.7650  153.6469 C.ar    1  UNL1        0.0594
     28 C         142.3170  134.9924  154.5088 C.ar    1  UNL1        0.1469
     29 F         141.6088  136.2373  154.0628 F       1  UNL1       -0.2039
@<TRIPOS>BOND
     1     1     2    2
     2     2     3   am
     3     3     5    1
     4     5     6    1
     5     6     7    1
     6     7     8    1
     7     8    11    1
     8    11    12    1
     9    12    13    1
    10    13    14    1
    11    14    15    1
    12    15    16    1
    13     8     9    1
    14     9    10    1
    15     2    17    1
    16    17    18   ar
    17    18    19   ar
    18    19    20   ar
    19    20    22    1
    20    22    23   ar
    21    23    24   ar
    22    24    25   ar
    23    25    26    1
    24    25    27   ar
    25    27    28   ar
    26    28    29    1
    27    20    21   ar
    28    10     5    1
    29    21    17   ar
    30    16    11    1
    31    28    22   ar
    32     3     4    1
@<TRIPOS>MOLECULE
*****
 29 32 0 0 0
SMALL
GASTEIGER

@<TRIPOS>ATOM
      1 O         143.8316  140.9287  161.0393 O.2     1  UNL1       -0.2650
      2 C         143.0336  139.6850  160.7817 C.2     1  UNL1        0.3013
      3 N         142.1556  139.1206  161.8589 N.am    1  UNL1       -0.2985
      4 H         141.6319  138.3043  161.6898 H       1  UNL1        0.1498
      5 C         142.0756  139.7999  163.1940 C.3     1  UNL1        0.0748
      6 C         143.0999  139.5035  164.2489 C.3     1  UNL1        0.0369
      7 C         143.0199  140.1828  165.5838 C.3     1  UNL1        0.0737
      8 N         141.9155  141.1585  165.8638 N.3     1  UNL1       -0.2738
      9 C         140.8912  141.4549  164.8089 C.3     1  UNL1        0.0737
     10 C         140.9713  140.7756  163.4740 C.3     1  UNL1        0.0369
     11 C         141.8355  141.8378  167.1989 C.3     1  UNL1        0.0575
     12 C         140.5686  142.5236  167.6166 C.3     1  UNL1        0.0160
     13 C         140.4886  143.2029  168.9517 C.3     1  UNL1        0.0014
     14 C         141.6755  143.1963  169.8688 C.3     1  UNL1        0.0001
     15 C         142.9425  142.5104  169.4510 C.3     1  UNL1        0.0014
     16 C         143.0224  141.8312  168.1160 C.3     1  UNL1        0.0160
     17 C         143.1136  139.0057  159.4466 C.ar    1  UNL1        0.3040
     18 N         143.7412  139.5699  158.2066 N.ar    1  UNL1       -0.1021
     19 N         143.5956  138.5559  157.1108 N.ar    1  UNL1       -0.1067
     20 C         142.8780  137.3650  157.6738 C.ar    1  UNL1        0.2523
     21 O         142.5801  137.6430  159.1174 O.2     1  UNL1       -0.4122
     22 C         142.5209  136.1155  156.9247 C.ar    1  UNL1        0.0827
     23 C         143.2407  134.8328  157.2191 C.ar    1  UNL1        0.0093
     24 C         142.8836  133.5834  156.4700 C.ar    1  UNL1        0.0299
     25 C         141.8068  133.6164  155.4263 C.ar    1  UNL1        0.1424
     26 F         141.4497  132.3669  154.6772 F       1  UNL1       -0.2041
     27 C         141.0870  134.8991  155.1318 C.ar    1  UNL1        0.0594
     28 C         141.4441  136.1486  155.8810 C.ar    1  UNL1        0.1469
     29 F         140.7242  137.4313  155.5864 F       1  UNL1       -0.2039
@<TRIPOS>BOND
     1     1     2    2
     2     2     3   am
     3     3     5    1
     4     5     6    1
     5     6     7    1
     6     7     8    1
     7     8    11    1
     8    11    12    1
     9    12    13    1
    10    13    14    1
    11    14    15    1
    12    15    16    1
    13     8     9    1
    14     9    10    1
    15     2    17    1
    16    17    18   ar
    17    18    19   ar
    18    19    20   ar
    19    20    22    1
    20    22    23   ar
    21    23    24   ar
    22    24    25   ar
    23    25    26    1
    24    25    27   ar
    25    27    28   ar
    26    28    29    1
    27    20    21   ar
    28    10     5    1
    29    21    17   ar
    30    16    11    1
    31    28    22   ar
    32     3     4    1
@<TRIPOS>MOLECULE
*****
 29 32 0 0 0
SMALL
GASTEIGER

@<TRIPOS>ATOM
      1 O         137.8383  143.6563  162.0831 O.2     1  UNL1       -0.2650
      2 C         138.9275  142.6443  162.2817 C.2     1  UNL1        0.3013
      3 N         140.0202  142.5087  161.2631 N.am    1  UNL1       -0.2985
      4 H         140.7350  141.8445  161.3935 H       1  UNL1        0.1498
      5 C         140.0237  143.3852  160.0457 C.3     1  UNL1        0.0748
      6 C         139.4197  142.8917  158.7645 C.3     1  UNL1        0.0369
      7 C         139.4232  143.7681  157.5473 C.3     1  UNL1        0.0737
      8 N         140.0307  145.1381  157.6112 N.3     1  UNL1       -0.2738
      9 C         140.6347  145.6316  158.8925 C.3     1  UNL1        0.0737
     10 C         140.6312  144.7552  160.1097 C.3     1  UNL1        0.0369
     11 C         140.0342  146.0146  156.3939 C.3     1  UNL1        0.0575
     12 C         139.1853  147.2506  156.3572 C.3     1  UNL1        0.0160
     13 C         139.1888  148.1271  155.1398 C.3     1  UNL1        0.0014
     14 C         140.0413  147.7674  153.9592 C.3     1  UNL1        0.0001
     15 C         140.8902  146.5313  153.9959 C.3     1  UNL1        0.0014
     16 C         140.8867  145.6549  155.2132 C.3     1  UNL1        0.0160
     17 C         138.9240  141.7678  163.4991 C.ar    1  UNL1        0.3040
     18 N         137.8427  140.8037  163.8881 N.ar    1  UNL1       -0.1021
     19 N         138.2516  140.1416  165.1706 N.ar    1  UNL1       -0.1067
     20 C         139.5855  140.6966  165.5740 C.ar    1  UNL1        0.2523
     21 O         140.0010  141.7017  164.5410 O.2     1  UNL1       -0.4122
     22 C         140.3667  140.3138  166.7959 C.ar    1  UNL1        0.0827
     23 C         139.7180  140.3650  168.1475 C.ar    1  UNL1        0.0093
     24 C         140.4991  139.9822  169.3693 C.ar    1  UNL1        0.0299
     25 C         141.9291  139.5481  169.2398 C.ar    1  UNL1        0.1424
     26 F         142.7103  139.1652  170.4618 F       1  UNL1       -0.2041
     27 C         142.5779  139.4968  167.8883 C.ar    1  UNL1        0.0594
     28 C         141.7966  139.8797  166.6664 C.ar    1  UNL1        0.1469
     29 F         142.4454  139.8285  165.3149 F       1  UNL1       -0.2039
@<TRIPOS>BOND
     1     1     2    2
     2     2     3   am
     3     3     5    1
     4     5     6    1
     5     6     7    1
     6     7     8    1
     7     8    11    1
     8    11    12    1
     9    12    13    1
    10    13    14    1
    11    14    15    1
    12    15    16    1
    13     8     9    1
    14     9    10    1
    15     2    17    1
    16    17    18   ar
    17    18    19   ar
    18    19    20   ar
    19    20    22    1
    20    22    23   ar
    21    23    24   ar
    22    24    25   ar
    23    25    26    1
    24    25    27   ar
    25    27    28   ar
    26    28    29    1
    27    20    21   ar
    28    10     5    1
    29    21    17   ar
    30    16    11    1
    31    28    22   ar
    32     3     4    1
@<TRIPOS>MOLECULE
*****
 29 32 0 0 0
SMALL
GASTEIGER

@<TRIPOS>ATOM
      1 O         143.1377  138.0436  162.1810 O.2     1  UNL1       -0.2650
      2 C         142.5283  138.8768  161.0927 C.2     1  UNL1        0.3013
      3 N         141.6019  140.0040  161.4406 N.am    1  UNL1       -0.2985
      4 H         141.2019  140.5508  160.7263 H       1  UNL1        0.1498
      5 C         141.2847  140.2980  162.8770 C.3     1  UNL1        0.0748
      6 C         142.2421  141.1004  163.7074 C.3     1  UNL1        0.0369
      7 C         141.9250  141.3944  165.1437 C.3     1  UNL1        0.0737
      8 N         140.6505  140.8859  165.7496 N.3     1  UNL1       -0.2738
      9 C         139.6931  140.0836  164.9192 C.3     1  UNL1        0.0737
     10 C         140.0102  139.7896  163.4829 C.3     1  UNL1        0.0369
     11 C         140.3333  141.1800  167.1859 C.3     1  UNL1        0.0575
     12 C         140.6997  142.5085  167.7781 C.3     1  UNL1        0.0160
     13 C         140.3826  142.8025  169.2145 C.3     1  UNL1        0.0014
     14 C         139.6991  141.7679  170.0586 C.3     1  UNL1        0.0001
     15 C         139.3328  140.4393  169.4663 C.3     1  UNL1        0.0014
     16 C         139.6499  140.1454  168.0300 C.3     1  UNL1        0.0160
     17 C         142.8454  138.5828  159.6563 C.ar    1  UNL1        0.3040
     18 N         143.6067  139.4750  158.7211 N.ar    1  UNL1       -0.1021
     19 N         143.6887  138.7886  157.3897 N.ar    1  UNL1       -0.1067
     20 C         142.9782  137.4723  157.5023 C.ar    1  UNL1        0.2523
     21 O         142.4570  137.3452  158.9031 O.2     1  UNL1       -0.4122
     22 C         142.8171  136.4609  156.4065 C.ar    1  UNL1        0.0827
     23 C         142.4145  136.9030  155.0308 C.ar    1  UNL1        0.0093
     24 C         142.2534  135.8916  153.9350 C.ar    1  UNL1        0.0299
     25 C         142.4949  134.4378  154.2148 C.ar    1  UNL1        0.1424
     26 F         142.3338  133.4263  153.1189 F       1  UNL1       -0.2041
     27 C         142.8976  133.9955  155.5904 C.ar    1  UNL1        0.0594
     28 C         143.0586  135.0071  156.6862 C.ar    1  UNL1        0.1469
     29 F         143.4613  134.5648  158.0619 F       1  UNL1       -0.2039
@<TRIPOS>BOND
     1     1     2    2
     2     2     3   am
     3     3     5    1
     4     5     6    1
     5     6     7    1
     6     7     8    1
     7     8    11    1
     8    11    12    1
     9    12    13    1
    10    13    14    1
    11    14    15    1
    12    15    16    1
    13     8     9    1
    14     9    10    1
    15     2    17    1
    16    17    18   ar
    17    18    19   ar
    18    19    20   ar
    19    20    22    1
    20    22    23   ar
    21    23    24   ar
    22    24    25   ar
    23    25    26    1
    24    25    27   ar
    25    27    28   ar
    26    28    29    1
    27    20    21   ar
    28    10     5    1
    29    21    17   ar
    30    16    11    1
    31    28    22   ar
    32     3     4    1
@<TRIPOS>MOLECULE
*****
 29 32 0 0 0
SMALL
GASTEIGER

@<TRIPOS>ATOM
      1 O         142.0976  139.7175  157.6217 O.2     1  UNL1       -0.2650
      2 C         142.3777  138.3620  158.1997 C.2     1  UNL1        0.3013
      3 N         142.0468  138.0754  159.6343 N.am    1  UNL1       -0.2985
      4 H         142.2307  137.1857  160.0136 H       1  UNL1        0.1498
      5 C         141.4358  139.1443  160.4911 C.3     1  UNL1        0.0748
      6 C         139.9491  139.3438  160.4952 C.3     1  UNL1        0.0369
      7 C         139.3382  140.4127  161.3519 C.3     1  UNL1        0.0737
      8 N         140.2139  141.2822  162.2047 N.3     1  UNL1       -0.2738
      9 C         141.7005  141.0827  162.2006 C.3     1  UNL1        0.0737
     10 C         142.3115  140.0138  161.3439 C.3     1  UNL1        0.0369
     11 C         139.6028  142.3511  163.0615 C.3     1  UNL1        0.0575
     12 C         140.2570  142.7420  164.3534 C.3     1  UNL1        0.0160
     13 C         139.6460  143.8110  165.2102 C.3     1  UNL1        0.0014
     14 C         138.3807  144.4890  164.7750 C.3     1  UNL1        0.0001
     15 C         137.7265  144.0980  163.4830 C.3     1  UNL1        0.0014
     16 C         138.3376  143.0291  162.6262 C.3     1  UNL1        0.0160
     17 C         142.9888  137.2930  157.3429 C.ar    1  UNL1        0.3040
     18 N         143.7945  137.5149  156.0972 N.ar    1  UNL1       -0.1021
     19 N         144.2051  136.1736  155.5658 N.ar    1  UNL1       -0.1067
     20 C         143.6530  135.1228  156.4830 C.ar    1  UNL1        0.2523
     21 O         142.9013  135.8147  157.5813 O.2     1  UNL1       -0.4122
     22 C         143.8229  133.6405  156.3290 C.ar    1  UNL1        0.0827
     23 C         143.4080  132.9663  155.0548 C.ar    1  UNL1        0.0093
     24 C         143.5778  131.4841  154.9008 C.ar    1  UNL1        0.0299
     25 C         144.1626  130.6757  156.0209 C.ar    1  UNL1        0.1424
     26 F         144.3325  129.1933  155.8669 F       1  UNL1       -0.2041
     27 C         144.5776  131.3498  157.2951 C.ar    1  UNL1        0.0594
     28 C         144.4077  132.8322  157.4491 C.ar    1  UNL1        0.1469
     29 F         144.8226  133.5063  158.7233 F       1  UNL1       -0.2039
@<TRIPOS>BOND
     1     1     2    2
     2     2     3   am
     3     3     5    1
     4     5     6    1
     5     6     7    1
     6     7     8    1
     7     8    11    1
     8    11    12    1
     9    12    13    1
    10    13    14    1
    11    14    15    1
    12    15    16    1
    13     8     9    1
    14     9    10    1
    15     2    17    1
    16    17    18   ar
    17    18    19   ar
    18    19    20   ar
    19    20    22    1
    20    22    23   ar
    21    23    24   ar
    22    24    25   ar
    23    25    26    1
    24    25    27   ar
    25    27    28   ar
    26    28    29    1
    27    20    21   ar
    28    10     5    1
    29    21    17   ar
    30    16    11    1
    31    28    22   ar
    32     3     4    1
@<TRIPOS>MOLECULE
*****
 29 32 0 0 0
SMALL
GASTEIGER

@<TRIPOS>ATOM
      1 O         142.0628  141.0498  160.9045 O.2     1  UNL1       -0.2650
      2 C         143.1857  140.1118  160.5744 C.2     1  UNL1        0.3013
      3 N         143.8034  139.2723  161.6531 N.am    1  UNL1       -0.2985
      4 H         144.5404  138.6566  161.4365 H       1  UNL1        0.1498
      5 C         143.2981  139.3709  163.0621 C.3     1  UNL1        0.0748
      6 C         142.3764  138.3186  163.6036 C.3     1  UNL1        0.0369
      7 C         141.8711  138.4173  165.0125 C.3     1  UNL1        0.0737
      8 N         142.2875  139.5681  165.8798 N.3     1  UNL1       -0.2738
      9 C         143.2092  140.6203  165.3382 C.3     1  UNL1        0.0737
     10 C         143.7144  140.5217  163.9293 C.3     1  UNL1        0.0369
     11 C         141.7822  139.6667  167.2887 C.3     1  UNL1        0.0575
     12 C         142.6863  139.3238  168.4354 C.3     1  UNL1        0.0160
     13 C         142.1809  139.4224  169.8444 C.3     1  UNL1        0.0014
     14 C         140.7715  139.8638  170.1065 C.3     1  UNL1        0.0001
     15 C         139.8675  140.2068  168.9596 C.3     1  UNL1        0.0014
     16 C         140.3728  140.1082  167.5508 C.3     1  UNL1        0.0160
     17 C         143.6911  140.0132  159.1654 C.ar    1  UNL1        0.3040
     18 N         143.4151  138.8935  158.2062 N.ar    1  UNL1       -0.1021
     19 N         144.1145  139.2052  156.9163 N.ar    1  UNL1       -0.1067
     20 C         144.8227  140.5176  157.0785 C.ar    1  UNL1        0.2523
     21 O         144.5609  141.0169  158.4685 O.2     1  UNL1       -0.4122
     22 C         145.6476  141.2092  156.0340 C.ar    1  UNL1        0.0827
     23 C         145.5630  140.7732  154.6012 C.ar    1  UNL1        0.0093
     24 C         146.3880  141.4648  153.5568 C.ar    1  UNL1        0.0299
     25 C         147.2977  142.5925  153.9450 C.ar    1  UNL1        0.1424
     26 F         148.1227  143.2842  152.9004 F       1  UNL1       -0.2041
     27 C         147.3824  143.0287  155.3777 C.ar    1  UNL1        0.0594
     28 C         146.5573  142.3370  156.4222 C.ar    1  UNL1        0.1469
     29 F         146.6420  142.7731  157.8549 F       1  UNL1       -0.2039
@<TRIPOS>BOND
     1     1     2    2
     2     2     3   am
     3     3     5    1
     4     5     6    1
     5     6     7    1
     6     7     8    1
     7     8    11    1
     8    11    12    1
     9    12    13    1
    10    13    14    1
    11    14    15    1
    12    15    16    1
    13     8     9    1
    14     9    10    1
    15     2    17    1
    16    17    18   ar
    17    18    19   ar
    18    19    20   ar
    19    20    22    1
    20    22    23   ar
    21    23    24   ar
    22    24    25   ar
    23    25    26    1
    24    25    27   ar
    25    27    28   ar
    26    28    29    1
    27    20    21   ar
    28    10     5    1
    29    21    17   ar
    30    16    11    1
    31    28    22   ar
    32     3     4    1
@<TRIPOS>MOLECULE
*****
 29 32 0 0 0
SMALL
GASTEIGER

@<TRIPOS>ATOM
      1 O         139.9364  137.7167  161.7234 O.2     1  UNL1       -0.2650
      2 C         140.1812  139.1873  161.5577 C.2     1  UNL1        0.3013
      3 N         140.6741  139.7224  160.2460 N.am    1  UNL1       -0.2985
      4 H         140.8348  140.6876  160.1373 H       1  UNL1        0.1498
      5 C         140.9222  138.7870  159.0999 C.3     1  UNL1        0.0748
      6 C         139.8122  138.4588  158.1459 C.3     1  UNL1        0.0369
      7 C         140.0603  137.5234  156.9998 C.3     1  UNL1        0.0737
      8 N         141.4184  136.9162  156.8078 N.3     1  UNL1       -0.2738
      9 C         142.5284  137.2444  157.7619 C.3     1  UNL1        0.0737
     10 C         142.2803  138.1798  158.9079 C.3     1  UNL1        0.0369
     11 C         141.6665  135.9807  155.6617 C.3     1  UNL1        0.0575
     12 C         142.3419  134.6631  155.9018 C.3     1  UNL1        0.0160
     13 C         142.5900  133.7277  154.7557 C.3     1  UNL1        0.0014
     14 C         142.1626  134.1099  153.3696 C.3     1  UNL1        0.0001
     15 C         141.4871  135.4276  153.1296 C.3     1  UNL1        0.0014
     16 C         141.2391  136.3630  154.2757 C.3     1  UNL1        0.0160
     17 C         139.9331  140.1228  162.7038 C.ar    1  UNL1        0.3040
     18 N         139.3745  141.5112  162.6034 N.ar    1  UNL1       -0.1021
     19 N         139.2962  142.0806  163.9891 N.ar    1  UNL1       -0.1067
     20 C         139.8065  141.0439  164.9457 C.ar    1  UNL1        0.2523
     21 O         140.2001  139.8340  164.1513 O.2     1  UNL1       -0.4122
     22 C         139.9058  141.1914  166.4350 C.ar    1  UNL1        0.0827
     23 C         140.4919  142.4384  167.0279 C.ar    1  UNL1        0.0093
     24 C         140.5912  142.5858  168.5173 C.ar    1  UNL1        0.0299
     25 C         140.1043  141.4863  169.4139 C.ar    1  UNL1        0.1424
     26 F         140.2035  141.6338  170.9034 F       1  UNL1       -0.2041
     27 C         139.5181  140.2392  168.8211 C.ar    1  UNL1        0.0594
     28 C         139.4189  140.0919  167.3316 C.ar    1  UNL1        0.1469
     29 F         138.8327  138.8448  166.7388 F       1  UNL1       -0.2039
@<TRIPOS>BOND
     1     1     2    2
     2     2     3   am
     3     3     5    1
     4     5     6    1
     5     6     7    1
     6     7     8    1
     7     8    11    1
     8    11    12    1
     9    12    13    1
    10    13    14    1
    11    14    15    1
    12    15    16    1
    13     8     9    1
    14     9    10    1
    15     2    17    1
    16    17    18   ar
    17    18    19   ar
    18    19    20   ar
    19    20    22    1
    20    22    23   ar
    21    23    24   ar
    22    24    25   ar
    23    25    26    1
    24    25    27   ar
    25    27    28   ar
    26    28    29    1
    27    20    21   ar
    28    10     5    1
    29    21    17   ar
    30    16    11    1
    31    28    22   ar
    32     3     4    1
@<TRIPOS>MOLECULE
*****
 29 32 0 0 0
SMALL
GASTEIGER

@<TRIPOS>ATOM
      1 O         137.9458  139.3870  161.9463 O.2     1  UNL1       -0.2650
      2 C         139.2267  139.5721  161.1880 C.2     1  UNL1        0.3013
      3 N         140.4366  140.1230  161.8826 N.am    1  UNL1       -0.2985
      4 H         141.2773  140.2444  161.3849 H       1  UNL1        0.1498
      5 C         140.3657  140.4888  163.3356 C.3     1  UNL1        0.0748
      6 C         140.4645  139.4203  164.3837 C.3     1  UNL1        0.0369
      7 C         140.3936  139.7862  165.8367 C.3     1  UNL1        0.0737
      8 N         140.2239  141.2205  166.2415 N.3     1  UNL1       -0.2738
      9 C         140.1250  142.2890  165.1934 C.3     1  UNL1        0.0737
     10 C         140.1960  141.9231  163.7405 C.3     1  UNL1        0.0369
     11 C         140.1530  141.5863  167.6945 C.3     1  UNL1        0.0575
     12 C         140.5553  142.9602  168.1425 C.3     1  UNL1        0.0160
     13 C         140.4843  143.3260  169.5956 C.3     1  UNL1        0.0014
     14 C         140.0111  142.3179  170.6005 C.3     1  UNL1        0.0001
     15 C         139.6088  140.9441  170.1524 C.3     1  UNL1        0.0014
     16 C         139.6797  140.5783  168.6995 C.3     1  UNL1        0.0160
     17 C         139.2976  139.2062  159.7349 C.ar    1  UNL1        0.3040
     18 N         138.4522  139.7831  158.6383 N.ar    1  UNL1       -0.1021
     19 N         138.8584  139.1327  157.3491 N.ar    1  UNL1       -0.1067
     20 C         139.9549  138.1540  157.6490 C.ar    1  UNL1        0.2523
     21 O         140.2263  138.1994  159.1235 O.2     1  UNL1       -0.4122
     22 C         140.6567  137.2828  156.6498 C.ar    1  UNL1        0.0827
     23 C         139.9195  136.7806  155.4439 C.ar    1  UNL1        0.0093
     24 C         140.6213  135.9094  154.4447 C.ar    1  UNL1        0.0299
     25 C         142.0604  135.5403  154.6514 C.ar    1  UNL1        0.1424
     26 F         142.7622  134.6691  153.6522 F       1  UNL1       -0.2041
     27 C         142.7977  136.0425  155.8574 C.ar    1  UNL1        0.0594
     28 C         142.0958  136.9137  156.8566 C.ar    1  UNL1        0.1469
     29 F         142.8332  137.4159  158.0625 F       1  UNL1       -0.2039
@<TRIPOS>BOND
     1     1     2    2
     2     2     3   am
     3     3     5    1
     4     5     6    1
     5     6     7    1
     6     7     8    1
     7     8    11    1
     8    11    12    1
     9    12    13    1
    10    13    14    1
    11    14    15    1
    12    15    16    1
    13     8     9    1
    14     9    10    1
    15     2    17    1
    16    17    18   ar
    17    18    19   ar
    18    19    20   ar
    19    20    22    1
    20    22    23   ar
    21    23    24   ar
    22    24    25   ar
    23    25    26    1
    24    25    27   ar
    25    27    28   ar
    26    28    29    1
    27    20    21   ar
    28    10     5    1
    29    21    17   ar
    30    16    11    1
    31    28    22   ar
    32     3     4    1
