@<TRIPOS>MOLECULE
*****
 34 38 0 0 0
SMALL
GASTEIGER

@<TRIPOS>ATOM
      1 C         140.6161  145.5696  156.6022 C.ar    1  UNL1        0.0509
      2 C         141.1540  144.5292  155.6652 C.ar    1  UNL1        0.0170
      3 C         141.2622  143.1014  156.1120 C.ar    1  UNL1        0.0310
      4 C         140.8325  142.7141  157.4960 C.ar    1  UNL1        0.1432
      5 F         140.9408  141.2862  157.9429 F       1  UNL1       -0.2041
      6 C         140.2946  143.7545  158.4331 C.ar    1  UNL1        0.0662
      7 C         140.1864  145.1822  157.9862 C.ar    1  UNL1        0.0200
      8 C         139.8649  143.3671  159.8170 C.ar    1  UNL1        0.1872
      9 N         138.4497  143.2361  160.2966 N.ar    1  UNL1       -0.1891
     10 C         138.4851  142.8308  161.7403 C.ar    1  UNL1        0.2546
     11 N         137.3944  142.5550  162.7325 N.ar    1  UNL1       -0.2083
     12 C         137.7409  142.1599  164.1374 C.ar    1  UNL1        0.1051
     13 C         139.1780  142.0405  164.5501 C.ar    1  UNL1        0.0558
     14 C         140.2687  142.3162  163.5580 C.ar    1  UNL1        0.1066
     15 N         139.9223  142.7114  162.1531 N.ar    1  UNL1       -0.1935
     16 N         140.7750  143.0429  160.9645 N.ar    1  UNL1       -0.1429
     17 C         139.5244  141.6453  165.9551 C.ar    1  UNL1        0.0803
     18 N         140.2153  142.6218  166.8602 N.ar    1  UNL1       -0.2441
     19 C         140.5618  142.2266  168.2652 C.ar    1  UNL1        0.0988
     20 C         140.2172  140.8550  168.7650 C.ar    1  UNL1        0.0204
     21 C         139.5263  139.8785  167.8599 C.ar    1  UNL1       -0.0012
     22 C         139.1799  140.2737  166.4550 C.ar    1  UNL1       -0.0041
     23 C         138.4890  139.2972  165.5499 C.3     1  UNL1        0.0326
     24 C         139.2934  147.4586  155.4056 C.2     1  UNL1        0.2855
     25 O         138.1870  146.4921  155.1027 O.2     1  UNL1       -0.2664
     26 N         140.5079  146.9974  156.1554 N.am    1  UNL1       -0.2778
     27 H         141.2340  147.6318  156.3541 H       1  UNL1        0.1553
     28 C         139.5283  151.8266  152.4483 C.3     1  UNL1        0.0950
     29 C         139.2931  150.8942  153.5994 C.ar    1  UNL1        0.2061
     30 N         138.7440  151.2731  154.9430 N.ar    1  UNL1       -0.2163
     31 C         138.6773  150.0321  155.7831 C.ar    1  UNL1        0.1011
     32 C         138.1885  149.9512  157.1989 C.3     1  UNL1        0.0556
     33 C         139.1851  148.8865  154.9588 C.ar    1  UNL1        0.2135
     34 O         139.5657  149.4193  153.6092 O.2     1  UNL1       -0.4341
@<TRIPOS>BOND
     1    28    29    1
     2    29    30   ar
     3    30    31   ar
     4    31    32    1
     5    31    33   ar
     6    33    24    1
     7    24    25    2
     8    24    26   am
     9    26     1    1
    10     1     2   ar
    11     2     3   ar
    12     3     4   ar
    13     4     5    1
    14     4     6   ar
    15     6     8    1
    16     8     9   ar
    17     9    10   ar
    18    10    11   ar
    19    11    12   ar
    20    12    13   ar
    21    13    17    1
    22    17    18   ar
    23    18    19   ar
    24    19    20   ar
    25    20    21   ar
    26    21    22   ar
    27    22    23    1
    28    13    14   ar
    29    14    15   ar
    30    15    16   ar
    31     6     7   ar
    32    33    34   ar
    33    34    29   ar
    34     7     1   ar
    35    16     8   ar
    36    15    10   ar
    37    22    17   ar
    38    26    27    1
@<TRIPOS>MOLECULE
*****
 34 38 0 0 0
SMALL
GASTEIGER

@<TRIPOS>ATOM
      1 C         140.2143  137.5934  156.3329 C.ar    1  UNL1        0.0509
      2 C         140.1849  138.6099  155.2303 C.ar    1  UNL1        0.0170
      3 C         139.8571  140.0409  155.5381 C.ar    1  UNL1        0.0310
      4 C         139.5587  140.4553  156.9485 C.ar    1  UNL1        0.1432
      5 F         139.2308  141.8864  157.2562 F       1  UNL1       -0.2041
      6 C         139.5881  139.4388  158.0511 C.ar    1  UNL1        0.0662
      7 C         139.9159  138.0079  157.7433 C.ar    1  UNL1        0.0200
      8 C         139.2896  139.8533  159.4614 C.ar    1  UNL1        0.1872
      9 N         138.0505  140.5568  159.9302 N.ar    1  UNL1       -0.1891
     10 C         138.1730  140.7753  161.4092 C.ar    1  UNL1        0.2546
     11 N         137.2571  141.4185  162.4079 N.ar    1  UNL1       -0.2083
     12 C         137.6561  141.4932  163.8519 C.ar    1  UNL1        0.1051
     13 C         138.9708  140.9247  164.2972 C.ar    1  UNL1        0.0558
     14 C         139.8867  140.2816  163.2984 C.ar    1  UNL1        0.1066
     15 N         139.4877  140.2069  161.8544 N.ar    1  UNL1       -0.1935
     16 N         140.1778  139.6371  160.6507 N.ar    1  UNL1       -0.1429
     17 C         139.3698  140.9995  165.7413 C.ar    1  UNL1        0.0803
     18 N         140.1464  142.1798  166.2447 N.ar    1  UNL1       -0.2441
     19 C         140.5453  142.2546  167.6888 C.ar    1  UNL1        0.0988
     20 C         140.1675  141.1489  168.6294 C.ar    1  UNL1        0.0204
     21 C         139.3908  139.9685  168.1259 C.ar    1  UNL1       -0.0012
     22 C         138.9920  139.8938  166.6819 C.ar    1  UNL1       -0.0041
     23 C         138.2153  138.7134  166.1784 C.3     1  UNL1        0.0326
     24 C         141.9261  135.6398  156.2734 C.2     1  UNL1        0.2855
     25 O         142.9823  136.5484  156.8294 O.2     1  UNL1       -0.2664
     26 N         140.5422  136.1623  156.0252 N.am    1  UNL1       -0.2778
     27 H         139.8490  135.5660  155.6603 H       1  UNL1        0.1553
     28 C         143.2323  130.5546  156.8344 C.3     1  UNL1        0.0950
     29 C         142.8544  131.8713  156.2235 C.ar    1  UNL1        0.2061
     30 N         142.6626  132.1420  154.7606 N.ar    1  UNL1       -0.2163
     31 C         142.2915  133.5867  154.6013 C.ar    1  UNL1        0.1011
     32 C         142.0079  134.2863  153.3051 C.3     1  UNL1        0.0556
     33 C         142.2540  134.2088  155.9657 C.ar    1  UNL1        0.2135
     34 O         142.6018  133.1487  156.9682 O.2     1  UNL1       -0.4341
@<TRIPOS>BOND
     1    28    29    1
     2    29    30   ar
     3    30    31   ar
     4    31    32    1
     5    31    33   ar
     6    33    24    1
     7    24    25    2
     8    24    26   am
     9    26     1    1
    10     1     2   ar
    11     2     3   ar
    12     3     4   ar
    13     4     5    1
    14     4     6   ar
    15     6     8    1
    16     8     9   ar
    17     9    10   ar
    18    10    11   ar
    19    11    12   ar
    20    12    13   ar
    21    13    17    1
    22    17    18   ar
    23    18    19   ar
    24    19    20   ar
    25    20    21   ar
    26    21    22   ar
    27    22    23    1
    28    13    14   ar
    29    14    15   ar
    30    15    16   ar
    31     6     7   ar
    32    33    34   ar
    33    34    29   ar
    34     7     1   ar
    35    16     8   ar
    36    15    10   ar
    37    22    17   ar
    38    26    27    1
@<TRIPOS>MOLECULE
*****
 34 38 0 0 0
SMALL
GASTEIGER

@<TRIPOS>ATOM
      1 C         136.9310  141.0855  156.4084 C.ar    1  UNL1        0.0509
      2 C         137.9528  141.1013  155.3105 C.ar    1  UNL1        0.0170
      3 C         139.3683  140.6965  155.5975 C.ar    1  UNL1        0.0310
      4 C         139.7620  140.2758  156.9824 C.ar    1  UNL1        0.1432
      5 F         141.1776  139.8710  157.2694 F       1  UNL1       -0.2041
      6 C         138.7402  140.2600  158.0804 C.ar    1  UNL1        0.0662
      7 C         137.3247  140.6648  157.7934 C.ar    1  UNL1        0.0200
      8 C         139.1338  139.8393  159.4653 C.ar    1  UNL1        0.1872
      9 N         139.5360  138.4569  159.8861 N.ar    1  UNL1       -0.1891
     10 C         139.8451  138.4904  161.3535 C.ar    1  UNL1        0.2546
     11 N         140.2916  137.4245  162.3097 N.ar    1  UNL1       -0.2083
     12 C         140.5270  137.7618  163.7522 C.ar    1  UNL1        0.1051
     13 C         140.3159  139.1650  164.2384 C.ar    1  UNL1        0.0558
     14 C         139.8694  140.2309  163.2822 C.ar    1  UNL1        0.1066
     15 N         139.6341  139.8936  161.8397 N.ar    1  UNL1       -0.1935
     16 N         139.1944  140.7273  160.6727 N.ar    1  UNL1       -0.1429
     17 C         140.5513  139.5023  165.6810 C.ar    1  UNL1        0.0803
     18 N         141.9365  139.8201  166.1605 N.ar    1  UNL1       -0.2441
     19 C         142.1719  140.1574  167.6031 C.ar    1  UNL1        0.0988
     20 C         141.0220  140.1769  168.5660 C.ar    1  UNL1        0.0204
     21 C         139.6366  139.8591  168.0864 C.ar    1  UNL1       -0.0012
     22 C         139.4013  139.5218  166.6439 C.ar    1  UNL1       -0.0041
     23 C         138.0160  139.2040  166.1643 C.3     1  UNL1        0.0326
     24 C         134.4816  140.4446  155.8253 C.2     1  UNL1        0.2855
     25 O         134.8634  138.9940  155.8161 O.2     1  UNL1       -0.2664
     26 N         135.5154  141.4903  156.1215 N.am    1  UNL1       -0.2778
     27 H         135.2648  142.4424  156.1275 H       1  UNL1        0.1553
     28 C         130.2503  142.6610  153.5751 C.3     1  UNL1        0.0950
     29 C         131.1211  141.8682  154.5040 C.ar    1  UNL1        0.2061
     30 N         130.6544  141.0766  155.6896 N.ar    1  UNL1       -0.2163
     31 C         131.8565  140.4469  156.3289 C.ar    1  UNL1        0.1011
     32 C         131.8500  139.5690  157.5451 C.3     1  UNL1        0.0556
     33 C         133.0660  140.8495  155.5383 C.ar    1  UNL1        0.2135
     34 O         132.6116  141.7278  154.4106 O.2     1  UNL1       -0.4341
@<TRIPOS>BOND
     1    28    29    1
     2    29    30   ar
     3    30    31   ar
     4    31    32    1
     5    31    33   ar
     6    33    24    1
     7    24    25    2
     8    24    26   am
     9    26     1    1
    10     1     2   ar
    11     2     3   ar
    12     3     4   ar
    13     4     5    1
    14     4     6   ar
    15     6     8    1
    16     8     9   ar
    17     9    10   ar
    18    10    11   ar
    19    11    12   ar
    20    12    13   ar
    21    13    17    1
    22    17    18   ar
    23    18    19   ar
    24    19    20   ar
    25    20    21   ar
    26    21    22   ar
    27    22    23    1
    28    13    14   ar
    29    14    15   ar
    30    15    16   ar
    31     6     7   ar
    32    33    34   ar
    33    34    29   ar
    34     7     1   ar
    35    16     8   ar
    36    15    10   ar
    37    22    17   ar
    38    26    27    1
@<TRIPOS>MOLECULE
*****
 34 38 0 0 0
SMALL
GASTEIGER

@<TRIPOS>ATOM
      1 C         142.4737  142.1527  165.5029 C.ar    1  UNL1        0.0509
      2 C         143.7714  142.8337  165.8221 C.ar    1  UNL1        0.0170
      3 C         144.8544  142.9071  164.7869 C.ar    1  UNL1        0.0310
      4 C         144.6396  142.2994  163.4324 C.ar    1  UNL1        0.1432
      5 F         145.7226  142.3727  162.3971 F       1  UNL1       -0.2041
      6 C         143.3418  141.6183  163.1132 C.ar    1  UNL1        0.0662
      7 C         142.2589  141.5450  164.1485 C.ar    1  UNL1        0.0200
      8 C         143.1270  141.0106  161.7588 C.ar    1  UNL1        0.1872
      9 N         142.7729  141.7539  160.5049 N.ar    1  UNL1       -0.1891
     10 C         142.6557  140.7556  159.3916 C.ar    1  UNL1        0.2546
     11 N         142.3289  140.9095  157.9358 N.ar    1  UNL1       -0.2083
     12 C         142.2837  139.7030  157.0457 C.ar    1  UNL1        0.1051
     13 C         142.5653  138.3426  157.6114 C.ar    1  UNL1        0.0558
     14 C         142.8921  138.1887  159.0672 C.ar    1  UNL1        0.1066
     15 N         142.9373  139.3952  159.9573 N.ar    1  UNL1       -0.1935
     16 N         143.2286  139.5528  161.4203 N.ar    1  UNL1       -0.1429
     17 C         142.5201  137.1361  156.7212 C.ar    1  UNL1        0.0803
     18 N         143.7931  136.4509  156.3214 N.ar    1  UNL1       -0.2441
     19 C         143.7479  135.2444  155.4313 C.ar    1  UNL1        0.0988
     20 C         142.4296  134.7232  154.9409 C.ar    1  UNL1        0.0204
     21 C         141.1565  135.4085  155.3406 C.ar    1  UNL1       -0.0012
     22 C         141.2018  136.6149  156.2308 C.ar    1  UNL1       -0.0041
     23 C         139.9287  137.3002  156.6306 C.3     1  UNL1        0.0326
     24 C         141.4762  141.0681  167.6427 C.2     1  UNL1        0.2855
     25 O         142.6448  140.1303  167.7121 O.2     1  UNL1       -0.2664
     26 N         141.3906  142.0793  166.5382 N.am    1  UNL1       -0.2778
     27 H         140.6236  142.6948  166.4927 H       1  UNL1        0.1553
     28 C         137.4304  139.3428  170.5642 C.3     1  UNL1        0.0950
     29 C         138.5335  140.2017  170.0209 C.ar    1  UNL1        0.2061
     30 N         138.9197  141.5621  170.5213 N.ar    1  UNL1       -0.2163
     31 C         140.0691  142.0522  169.6913 C.ar    1  UNL1        0.1011
     32 C         140.7711  143.3686  169.8473 C.3     1  UNL1        0.0556
     33 C         140.3932  140.9947  168.6780 C.ar    1  UNL1        0.2135
     34 O         139.4442  139.8511  168.8817 O.2     1  UNL1       -0.4341
@<TRIPOS>BOND
     1    28    29    1
     2    29    30   ar
     3    30    31   ar
     4    31    32    1
     5    31    33   ar
     6    33    24    1
     7    24    25    2
     8    24    26   am
     9    26     1    1
    10     1     2   ar
    11     2     3   ar
    12     3     4   ar
    13     4     5    1
    14     4     6   ar
    15     6     8    1
    16     8     9   ar
    17     9    10   ar
    18    10    11   ar
    19    11    12   ar
    20    12    13   ar
    21    13    17    1
    22    17    18   ar
    23    18    19   ar
    24    19    20   ar
    25    20    21   ar
    26    21    22   ar
    27    22    23    1
    28    13    14   ar
    29    14    15   ar
    30    15    16   ar
    31     6     7   ar
    32    33    34   ar
    33    34    29   ar
    34     7     1   ar
    35    16     8   ar
    36    15    10   ar
    37    22    17   ar
    38    26    27    1
@<TRIPOS>MOLECULE
*****
 34 38 0 0 0
SMALL
GASTEIGER

@<TRIPOS>ATOM
      1 C         134.8090  140.1086  155.5982 C.ar    1  UNL1        0.0509
      2 C         135.3830  139.1806  154.5690 C.ar    1  UNL1        0.0170
      3 C         136.8652  139.1351  154.3436 C.ar    1  UNL1        0.0310
      4 C         137.7735  140.0175  155.1475 C.ar    1  UNL1        0.1432
      5 F         139.2558  139.9720  154.9221 F       1  UNL1       -0.2041
      6 C         137.1996  140.9455  156.1767 C.ar    1  UNL1        0.0662
      7 C         135.7174  140.9911  156.4021 C.ar    1  UNL1        0.0200
      8 C         138.1079  141.8280  156.9806 C.ar    1  UNL1        0.1872
      9 N         138.6259  143.1727  156.5643 N.ar    1  UNL1       -0.1891
     10 C         139.4959  143.6965  157.6683 C.ar    1  UNL1        0.2546
     11 N         140.2726  144.9713  157.8152 N.ar    1  UNL1       -0.2083
     12 C         141.0691  145.2249  159.0606 C.ar    1  UNL1        0.1051
     13 C         141.0887  144.2039  160.1593 C.ar    1  UNL1        0.0558
     14 C         140.3120  142.9291  160.0125 C.ar    1  UNL1        0.1066
     15 N         139.5155  142.6755  158.7670 N.ar    1  UNL1       -0.1935
     16 N         138.6577  141.5207  158.3419 N.ar    1  UNL1       -0.1429
     17 C         141.8852  144.4576  161.4048 C.ar    1  UNL1        0.0803
     18 N         143.3159  144.0138  161.4836 N.ar    1  UNL1       -0.2441
     19 C         144.1124  144.2675  162.7292 C.ar    1  UNL1        0.0988
     20 C         143.4782  144.9651  163.8959 C.ar    1  UNL1        0.0204
     21 C         142.0474  145.4089  163.8170 C.ar    1  UNL1       -0.0012
     22 C         141.2510  145.1552  162.5715 C.ar    1  UNL1       -0.0041
     23 C         139.8203  145.5990  162.4927 C.3     1  UNL1        0.0326
     24 C         132.7176  139.3921  156.9630 C.2     1  UNL1        0.2855
     25 O         133.5907  138.5845  157.8770 O.2     1  UNL1       -0.2664
     26 N         133.3267  140.1542  155.8236 N.am    1  UNL1       -0.2778
     27 H         132.7536  140.6842  155.2238 H       1  UNL1        0.1553
     28 C         127.8942  138.3928  158.8647 C.3     1  UNL1        0.0950
     29 C         129.0182  138.9783  158.0626 C.ar    1  UNL1        0.2061
     30 N         128.8904  140.0374  157.0079 N.ar    1  UNL1       -0.2163
     31 C         130.2607  140.3213  156.4677 C.ar    1  UNL1        0.1011
     32 C         130.5972  141.3144  155.3951 C.3     1  UNL1        0.0556
     33 C         131.2353  139.4377  157.1884 C.ar    1  UNL1        0.2135
     34 O         130.4674  138.6077  158.1741 O.2     1  UNL1       -0.4341
@<TRIPOS>BOND
     1    28    29    1
     2    29    30   ar
     3    30    31   ar
     4    31    32    1
     5    31    33   ar
     6    33    24    1
     7    24    25    2
     8    24    26   am
     9    26     1    1
    10     1     2   ar
    11     2     3   ar
    12     3     4   ar
    13     4     5    1
    14     4     6   ar
    15     6     8    1
    16     8     9   ar
    17     9    10   ar
    18    10    11   ar
    19    11    12   ar
    20    12    13   ar
    21    13    17    1
    22    17    18   ar
    23    18    19   ar
    24    19    20   ar
    25    20    21   ar
    26    21    22   ar
    27    22    23    1
    28    13    14   ar
    29    14    15   ar
    30    15    16   ar
    31     6     7   ar
    32    33    34   ar
    33    34    29   ar
    34     7     1   ar
    35    16     8   ar
    36    15    10   ar
    37    22    17   ar
    38    26    27    1
@<TRIPOS>MOLECULE
*****
 34 38 0 0 0
SMALL
GASTEIGER

@<TRIPOS>ATOM
      1 C         139.1938  139.2140  158.5040 C.ar    1  UNL1        0.0509
      2 C         138.7506  140.4980  157.8678 C.ar    1  UNL1        0.0170
      3 C         138.4124  141.6819  158.7246 C.ar    1  UNL1        0.0310
      4 C         138.5175  141.5816  160.2176 C.ar    1  UNL1        0.1432
      5 F         138.1794  142.7656  161.0744 F       1  UNL1       -0.2041
      6 C         138.9608  140.2976  160.8537 C.ar    1  UNL1        0.0662
      7 C         139.2989  139.1138  159.9969 C.ar    1  UNL1        0.0200
      8 C         139.0659  140.1974  162.3467 C.ar    1  UNL1        0.1872
      9 N         138.2134  139.3407  163.2351 N.ar    1  UNL1       -0.1891
     10 C         138.6626  139.5501  164.6508 C.ar    1  UNL1        0.2546
     11 N         138.1885  138.9703  165.9504 N.ar    1  UNL1       -0.2083
     12 C         138.8446  139.3765  167.2366 C.ar    1  UNL1        0.1051
     13 C         139.9749  140.3627  167.2232 C.ar    1  UNL1        0.0558
     14 C         140.4489  140.9425  165.9237 C.ar    1  UNL1        0.1066
     15 N         139.7928  140.5362  164.6375 N.ar    1  UNL1       -0.1935
     16 N         140.0420  140.9363  163.2134 N.ar    1  UNL1       -0.1429
     17 C         140.6310  140.7689  168.5096 C.ar    1  UNL1        0.0803
     18 N         139.9324  141.7134  169.4422 N.ar    1  UNL1       -0.2441
     19 C         140.5886  142.1197  170.7285 C.ar    1  UNL1        0.0988
     20 C         141.9433  141.5814  171.0821 C.ar    1  UNL1        0.0204
     21 C         142.6419  140.6369  170.1493 C.ar    1  UNL1       -0.0012
     22 C         141.9857  140.2307  168.8631 C.ar    1  UNL1       -0.0041
     23 C         142.6843  139.2862  167.9303 C.3     1  UNL1        0.0326
     24 C         140.9511  137.7914  157.2240 C.2     1  UNL1        0.2855
     25 O         142.0321  138.7366  157.6577 O.2     1  UNL1       -0.2664
     26 N         139.5320  138.0301  157.6472 N.am    1  UNL1       -0.2778
     27 H         138.8225  137.4097  157.3625 H       1  UNL1        0.1553
     28 C         143.2422  133.3906  155.4175 C.3     1  UNL1        0.0950
     29 C         142.3424  134.5846  155.5368 C.ar    1  UNL1        0.2061
     30 N         141.2768  134.9868  154.5606 N.ar    1  UNL1       -0.2163
     31 C         140.6260  136.2370  155.0739 C.ar    1  UNL1        0.1011
     32 C         139.5081  136.9853  154.4102 C.3     1  UNL1        0.0556
     33 C         141.2893  136.6075  156.3672 C.ar    1  UNL1        0.2135
     34 O         142.3501  135.5863  156.6533 O.2     1  UNL1       -0.4341
@<TRIPOS>BOND
     1    28    29    1
     2    29    30   ar
     3    30    31   ar
     4    31    32    1
     5    31    33   ar
     6    33    24    1
     7    24    25    2
     8    24    26   am
     9    26     1    1
    10     1     2   ar
    11     2     3   ar
    12     3     4   ar
    13     4     5    1
    14     4     6   ar
    15     6     8    1
    16     8     9   ar
    17     9    10   ar
    18    10    11   ar
    19    11    12   ar
    20    12    13   ar
    21    13    17    1
    22    17    18   ar
    23    18    19   ar
    24    19    20   ar
    25    20    21   ar
    26    21    22   ar
    27    22    23    1
    28    13    14   ar
    29    14    15   ar
    30    15    16   ar
    31     6     7   ar
    32    33    34   ar
    33    34    29   ar
    34     7     1   ar
    35    16     8   ar
    36    15    10   ar
    37    22    17   ar
    38    26    27    1
@<TRIPOS>MOLECULE
*****
 34 38 0 0 0
SMALL
GASTEIGER

@<TRIPOS>ATOM
      1 C         142.7208  140.9087  163.6561 C.ar    1  UNL1        0.0509
      2 C         144.2111  140.7514  163.5914 C.ar    1  UNL1        0.0170
      3 C         144.9719  141.2918  162.4170 C.ar    1  UNL1        0.0310
      4 C         144.2425  141.9895  161.3075 C.ar    1  UNL1        0.1432
      5 F         145.0034  142.5299  160.1331 F       1  UNL1       -0.2041
      6 C         142.7522  142.1468  161.3722 C.ar    1  UNL1        0.0662
      7 C         141.9914  141.6064  162.5466 C.ar    1  UNL1        0.0200
      8 C         142.0227  142.8444  160.2627 C.ar    1  UNL1        0.1872
      9 N         140.9595  142.2434  159.3918 N.ar    1  UNL1       -0.1891
     10 C         140.5081  143.2932  158.4200 C.ar    1  UNL1        0.2546
     11 N         139.4843  143.2724  157.3240 N.ar    1  UNL1       -0.2083
     12 C         139.2447  144.5015  156.4983 C.ar    1  UNL1        0.1051
     13 C         140.0288  145.7513  156.7686 C.ar    1  UNL1        0.0558
     14 C         141.0526  145.7720  157.8646 C.ar    1  UNL1        0.1066
     15 N         141.2923  144.5430  158.6903 N.ar    1  UNL1       -0.1935
     16 N         142.2283  144.2656  159.8291 N.ar    1  UNL1       -0.1429
     17 C         139.7891  146.9804  155.9428 C.ar    1  UNL1        0.0803
     18 N         138.9323  148.0888  156.4788 N.ar    1  UNL1       -0.2441
     19 C         138.6927  149.3179  155.6530 C.ar    1  UNL1        0.0988
     20 C         139.3098  149.4386  154.2911 C.ar    1  UNL1        0.0204
     21 C         140.1667  148.3301  153.7551 C.ar    1  UNL1       -0.0012
     22 C         140.4063  147.1011  154.5809 C.ar    1  UNL1       -0.0041
     23 C         141.2631  145.9926  154.0449 C.3     1  UNL1        0.0326
     24 C         141.4402  141.3034  165.8820 C.2     1  UNL1        0.2855
     25 O         141.6814  142.7787  165.7592 O.2     1  UNL1       -0.2664
     26 N         141.9599  140.3684  164.8305 N.am    1  UNL1       -0.2778
     27 H         141.8016  139.4000  164.9111 H       1  UNL1        0.1553
     28 C         140.0688  140.0176  170.8162 C.3     1  UNL1        0.0950
     29 C         140.0490  140.1720  169.3244 C.ar    1  UNL1        0.2061
     30 N         138.9678  139.6909  168.4025 N.ar    1  UNL1       -0.2163
     31 C         139.3574  140.0562  167.0007 C.ar    1  UNL1        0.1011
     32 C         138.5644  139.7657  165.7611 C.3     1  UNL1        0.0556
     33 C         140.6793  140.7630  167.0564 C.ar    1  UNL1        0.2135
     34 O         141.1067  140.8345  168.4924 O.2     1  UNL1       -0.4341
@<TRIPOS>BOND
     1    28    29    1
     2    29    30   ar
     3    30    31   ar
     4    31    32    1
     5    31    33   ar
     6    33    24    1
     7    24    25    2
     8    24    26   am
     9    26     1    1
    10     1     2   ar
    11     2     3   ar
    12     3     4   ar
    13     4     5    1
    14     4     6   ar
    15     6     8    1
    16     8     9   ar
    17     9    10   ar
    18    10    11   ar
    19    11    12   ar
    20    12    13   ar
    21    13    17    1
    22    17    18   ar
    23    18    19   ar
    24    19    20   ar
    25    20    21   ar
    26    21    22   ar
    27    22    23    1
    28    13    14   ar
    29    14    15   ar
    30    15    16   ar
    31     6     7   ar
    32    33    34   ar
    33    34    29   ar
    34     7     1   ar
    35    16     8   ar
    36    15    10   ar
    37    22    17   ar
    38    26    27    1
@<TRIPOS>MOLECULE
*****
 34 38 0 0 0
SMALL
GASTEIGER

@<TRIPOS>ATOM
      1 C         143.6793  135.6991  156.3117 C.ar    1  UNL1        0.0509
      2 C         144.4667  136.4991  155.3166 C.ar    1  UNL1        0.0170
      3 C         144.2591  137.9810  155.2132 C.ar    1  UNL1        0.0310
      4 C         143.2642  138.6630  156.1049 C.ar    1  UNL1        0.1432
      5 F         143.0566  140.1450  156.0014 F       1  UNL1       -0.2041
      6 C         142.4768  137.8630  157.0999 C.ar    1  UNL1        0.0662
      7 C         142.6844  136.3811  157.2033 C.ar    1  UNL1        0.0200
      8 C         141.4818  138.5450  157.9915 C.ar    1  UNL1        0.1872
      9 N         139.9980  138.3257  157.9867 N.ar    1  UNL1       -0.1891
     10 C         139.3951  139.2112  159.0367 C.ar    1  UNL1        0.2546
     11 N         137.9778  139.4185  159.4820 N.ar    1  UNL1       -0.2083
     12 C         137.6718  140.3924  160.5810 C.ar    1  UNL1        0.1051
     13 C         138.7831  141.1590  161.2347 C.ar    1  UNL1        0.0558
     14 C         140.2004  140.9517  160.7894 C.ar    1  UNL1        0.1066
     15 N         140.5064  139.9778  159.6904 N.ar    1  UNL1       -0.1935
     16 N         141.7960  139.5661  159.0444 N.ar    1  UNL1       -0.1429
     17 C         138.4771  142.1329  162.3337 C.ar    1  UNL1        0.0803
     18 N         138.1729  143.5643  162.0042 N.ar    1  UNL1       -0.2441
     19 C         137.8668  144.5382  163.1033 C.ar    1  UNL1        0.0988
     20 C         137.8650  144.0807  164.5318 C.ar    1  UNL1        0.0204
     21 C         138.1692  142.6493  164.8613 C.ar    1  UNL1       -0.0012
     22 C         138.4752  141.6754  163.7623 C.ar    1  UNL1       -0.0041
     23 C         138.7795  140.2440  164.0917 C.3     1  UNL1        0.0326
     24 C         142.8148  133.2756  155.9526 C.2     1  UNL1        0.2855
     25 O         141.5351  133.8159  155.3866 O.2     1  UNL1       -0.2664
     26 N         143.8869  134.2171  156.4151 N.am    1  UNL1       -0.2778
     27 H         144.7268  133.8624  156.7866 H       1  UNL1        0.1553
     28 C         143.3571  128.4060  157.9207 C.3     1  UNL1        0.0950
     29 C         143.2716  129.5552  156.9607 C.ar    1  UNL1        0.2061
     30 N         143.4119  129.4708  155.4696 N.ar    1  UNL1       -0.2163
     31 C         143.2578  130.8542  154.9105 C.ar    1  UNL1        0.1011
     32 C         143.3271  131.2319  153.4605 C.3     1  UNL1        0.0556
     33 C         143.0224  131.7935  156.0560 C.ar    1  UNL1        0.2135
     34 O         143.0309  130.9907  157.3231 O.2     1  UNL1       -0.4341
@<TRIPOS>BOND
     1    28    29    1
     2    29    30   ar
     3    30    31   ar
     4    31    32    1
     5    31    33   ar
     6    33    24    1
     7    24    25    2
     8    24    26   am
     9    26     1    1
    10     1     2   ar
    11     2     3   ar
    12     3     4   ar
    13     4     5    1
    14     4     6   ar
    15     6     8    1
    16     8     9   ar
    17     9    10   ar
    18    10    11   ar
    19    11    12   ar
    20    12    13   ar
    21    13    17    1
    22    17    18   ar
    23    18    19   ar
    24    19    20   ar
    25    20    21   ar
    26    21    22   ar
    27    22    23    1
    28    13    14   ar
    29    14    15   ar
    30    15    16   ar
    31     6     7   ar
    32    33    34   ar
    33    34    29   ar
    34     7     1   ar
    35    16     8   ar
    36    15    10   ar
    37    22    17   ar
    38    26    27    1
@<TRIPOS>MOLECULE
*****
 34 38 0 0 0
SMALL
GASTEIGER

@<TRIPOS>ATOM
      1 C         143.4304  139.6001  158.0579 C.ar    1  UNL1        0.0509
      2 C         142.1559  139.1967  157.3776 C.ar    1  UNL1        0.0170
      3 C         140.9374  138.8818  158.1937 C.ar    1  UNL1        0.0310
      4 C         140.9934  138.9704  159.6900 C.ar    1  UNL1        0.1432
      5 F         139.7748  138.6555  160.5061 F       1  UNL1       -0.2041
      6 C         142.2679  139.3738  160.3703 C.ar    1  UNL1        0.0662
      7 C         143.4864  139.6886  159.5542 C.ar    1  UNL1        0.0200
      8 C         142.3240  139.4623  161.8666 C.ar    1  UNL1        0.1872
      9 N         143.0522  138.5203  162.7790 N.ar    1  UNL1       -0.1891
     10 C         142.8399  138.9842  164.1895 C.ar    1  UNL1        0.2546
     11 N         143.3181  138.4465  165.5056 N.ar    1  UNL1       -0.2083
     12 C         142.9369  139.1375  166.7812 C.ar    1  UNL1        0.1051
     13 C         142.0775  140.3663  166.7407 C.ar    1  UNL1        0.0558
     14 C         141.5993  140.9040  165.4246 C.ar    1  UNL1        0.1066
     15 N         141.9805  140.2129  164.1490 N.ar    1  UNL1       -0.1935
     16 N         141.6616  140.5084  162.7134 N.ar    1  UNL1       -0.1429
     17 C         141.6963  141.0573  168.0163 C.ar    1  UNL1        0.0803
     18 N         142.6626  141.9930  168.6801 N.ar    1  UNL1       -0.2441
     19 C         142.2815  142.6840  169.9558 C.ar    1  UNL1        0.0988
     20 C         140.9339  142.4393  170.5676 C.ar    1  UNL1        0.0204
     21 C         139.9676  141.5036  169.9037 C.ar    1  UNL1       -0.0012
     22 C         140.3488  140.8126  168.6281 C.ar    1  UNL1       -0.0041
     23 C         139.3824  139.8769  167.9642 C.3     1  UNL1        0.0326
     24 C         144.9434  141.3326  156.8498 C.2     1  UNL1        0.2855
     25 O         144.0193  142.4353  157.2739 O.2     1  UNL1       -0.2664
     26 N         144.6490  139.9150  157.2418 N.am    1  UNL1       -0.2778
     27 H         145.2556  139.1912  156.9634 H       1  UNL1        0.1553
     28 C         148.4169  141.5174  152.8772 C.3     1  UNL1        0.0950
     29 C         147.7586  141.7324  154.2077 C.ar    1  UNL1        0.2061
     30 N         148.3159  142.5316  155.3482 N.ar    1  UNL1       -0.2163
     31 C         147.3291  142.4791  156.4768 C.ar    1  UNL1        0.1011
     32 C         147.4825  143.1419  157.8136 C.3     1  UNL1        0.0556
     33 C         146.1620  141.6474  156.0337 C.ar    1  UNL1        0.2135
     34 O         146.4275  141.1859  154.6314 O.2     1  UNL1       -0.4341
@<TRIPOS>BOND
     1    28    29    1
     2    29    30   ar
     3    30    31   ar
     4    31    32    1
     5    31    33   ar
     6    33    24    1
     7    24    25    2
     8    24    26   am
     9    26     1    1
    10     1     2   ar
    11     2     3   ar
    12     3     4   ar
    13     4     5    1
    14     4     6   ar
    15     6     8    1
    16     8     9   ar
    17     9    10   ar
    18    10    11   ar
    19    11    12   ar
    20    12    13   ar
    21    13    17    1
    22    17    18   ar
    23    18    19   ar
    24    19    20   ar
    25    20    21   ar
    26    21    22   ar
    27    22    23    1
    28    13    14   ar
    29    14    15   ar
    30    15    16   ar
    31     6     7   ar
    32    33    34   ar
    33    34    29   ar
    34     7     1   ar
    35    16     8   ar
    36    15    10   ar
    37    22    17   ar
    38    26    27    1
