@<TRIPOS>MOLECULE
*****
 42 46 0 0 0
SMALL
GASTEIGER

@<TRIPOS>ATOM
      1 C         139.4867  140.6229  163.7495 C.ar    1  UNL1        0.1200
      2 N         139.9567  141.2384  165.0341 N.ar    1  UNL1       -0.2309
      3 C         139.7725  140.2278  166.1270 C.ar    1  UNL1        0.0997
      4 C         139.1885  138.9875  165.5180 C.ar    1  UNL1        0.0961
      5 N         139.0119  139.2318  164.0486 N.ar    1  UNL1       -0.3123
      6 C         140.1125  140.4230  167.5749 C.ar    1  UNL1        0.0193
      7 C         139.1290  140.0275  168.6362 C.ar    1  UNL1        0.0038
      8 C         139.4689  140.2227  170.0840 C.ar    1  UNL1        0.0296
      9 C         140.7924  140.8135  170.4707 C.ar    1  UNL1        0.1440
     10 F         141.1324  141.0087  171.9184 F       1  UNL1       -0.2042
     11 C         141.7759  141.2090  169.4094 C.ar    1  UNL1        0.0988
     12 C         141.4359  141.0137  167.9615 C.ar    1  UNL1        0.0077
     13 C         143.0994  141.7997  169.7960 C.3     1  UNL1        0.4207
     14 F         144.4228  142.3904  170.1825 F       1  UNL1       -0.1658
     15 F         143.6021  140.4345  170.1611 F       1  UNL1       -0.1658
     16 F         142.5967  143.1649  169.4308 F       1  UNL1       -0.1658
     17 N         139.4986  142.6021  159.7082 N.pl3   1  UNL1       -0.2930
     18 C         138.2458  142.5886  160.5330 C.3     1  UNL1        0.0926
     19 C         138.2418  141.9289  161.8800 C.3     1  UNL1        0.0290
     20 C         139.4907  141.2826  162.4024 C.3     1  UNL1        0.0603
     21 C         140.7435  141.2961  161.5776 C.3     1  UNL1        0.0290
     22 C         140.7474  141.9559  160.2305 C.3     1  UNL1        0.0926
     23 C         139.9667  144.6815  158.2225 C.ar    1  UNL1        0.1157
     24 C         139.9706  145.3412  156.8754 C.ar    1  UNL1        0.1342
     25 N         140.4348  146.7609  156.7369 N.pl3   1  UNL1       -0.3424
     26 N         139.5105  144.5813  155.6668 N.ar    1  UNL1       -0.2092
     27 C         139.0464  143.1616  155.8053 C.ar    1  UNL1        0.2012
     28 N         139.0424  142.5020  157.1524 N.ar    1  UNL1       -0.2088
     29 C         139.5026  143.2619  158.3610 C.ar    1  UNL1        0.1405
     30 H         140.7368  147.2597  157.5301 H       1  UNL1        0.1437
     31 H         140.4373  147.1939  155.8527 H       1  UNL1        0.1437
     32 N         141.8811  145.4570  159.7985 N.am    1  UNL1       -0.3252
     33 C         140.4269  145.4414  159.4311 C.2     1  UNL1        0.2482
     34 O         139.4328  146.1858  160.2724 O.2     1  UNL1       -0.2702
     35 H         142.1831  145.9557  160.5918 H       1  UNL1        0.1453
     36 H         142.5335  144.9684  159.2464 H       1  UNL1        0.1453
     37 C         138.4578  138.2561  163.0530 C.3     1  UNL1        0.1245
     38 C         139.3647  137.6198  162.0418 C.3     1  UNL1        0.0969
     39 N         140.8515  137.7754  162.1646 N.3     1  UNL1       -0.2710
     40 C         141.9744  138.0289  161.2030 C.3     1  UNL1        0.0736
     41 C         142.9542  137.9956  162.3383 C.3     1  UNL1        0.0346
     42 C         141.8312  137.7421  163.2999 C.3     1  UNL1        0.0736
@<TRIPOS>BOND
     1    32    33   am
     2    33    34    2
     3    33    23    1
     4    23    24   ar
     5    24    25    1
     6    24    26   ar
     7    26    27   ar
     8    27    28   ar
     9    28    29   ar
    10    29    17    1
    11    17    18    1
    12    18    19    1
    13    19    20    1
    14    20     1    1
    15     1     2   ar
    16     2     3   ar
    17     3     6    1
    18     6     7   ar
    19     7     8   ar
    20     8     9   ar
    21     9    10    1
    22     9    11   ar
    23    11    13    1
    24    13    14    1
    25    13    15    1
    26    13    16    1
    27    11    12   ar
    28     3     4   ar
    29     4     5   ar
    30     5    37    1
    31    37    38    1
    32    38    39    1
    33    39    40    1
    34    40    41    1
    35    41    42    1
    36    20    21    1
    37    21    22    1
    38    29    23   ar
    39    22    17    1
    40     5     1   ar
    41    42    39    1
    42    12     6   ar
    43    32    35    1
    44    32    36    1
    45    25    30    1
    46    25    31    1
@<TRIPOS>MOLECULE
*****
 42 46 0 0 0
SMALL
GASTEIGER

@<TRIPOS>ATOM
      1 C         141.4591  140.6611  163.4412 C.ar    1  UNL1        0.1200
      2 N         141.2153  141.2101  164.8157 N.ar    1  UNL1       -0.2309
      3 C         141.8168  140.2595  165.8079 C.ar    1  UNL1        0.0997
      4 C         142.4324  139.1230  165.0467 C.ar    1  UNL1        0.0961
      5 N         142.2114  139.3712  163.5840 N.ar    1  UNL1       -0.3123
      6 C         141.8048  140.4176  167.2995 C.ar    1  UNL1        0.0193
      7 C         142.5156  139.4200  168.1653 C.ar    1  UNL1        0.0038
      8 C         142.5037  139.5781  169.6568 C.ar    1  UNL1        0.0296
      9 C         141.7808  140.7339  170.2828 C.ar    1  UNL1        0.1440
     10 F         141.7688  140.8920  171.7743 F       1  UNL1       -0.2042
     11 C         141.0700  141.7315  169.4170 C.ar    1  UNL1        0.0988
     12 C         141.0820  141.5734  167.9254 C.ar    1  UNL1        0.0077
     13 C         140.3472  142.8872  170.0429 C.3     1  UNL1        0.4207
     14 F         139.6244  144.0430  170.6688 F       1  UNL1       -0.1658
     15 F         141.5551  143.7529  169.8394 F       1  UNL1       -0.1658
     16 F         139.1392  142.0216  170.2464 F       1  UNL1       -0.1658
     17 N         140.1617  142.5519  159.5693 N.pl3   1  UNL1       -0.2930
     18 C         139.1657  142.3381  160.6703 C.3     1  UNL1        0.0926
     19 C         139.5982  141.7078  161.9609 C.3     1  UNL1        0.0290
     20 C         141.0267  141.2914  162.1506 C.3     1  UNL1        0.0603
     21 C         142.0227  141.5052  161.0496 C.3     1  UNL1        0.0290
     22 C         141.5902  142.1355  159.7589 C.3     1  UNL1        0.0926
     23 C         140.0110  144.6327  158.0209 C.ar    1  UNL1        0.1157
     24 C         139.5785  145.2629  156.7303 C.ar    1  UNL1        0.1342
     25 N         139.8603  146.7136  156.4725 N.pl3   1  UNL1       -0.3424
     26 N         138.8642  144.4426  155.6974 N.ar    1  UNL1       -0.2092
     27 C         138.5825  142.9921  155.9552 C.ar    1  UNL1        0.2012
     28 N         139.0150  142.3619  157.2458 N.ar    1  UNL1       -0.2088
     29 C         139.7292  143.1822  158.2787 C.ar    1  UNL1        0.1405
     30 H         140.3291  147.2520  157.1504 H       1  UNL1        0.1437
     31 H         139.5764  147.1272  155.6254 H       1  UNL1        0.1437
     32 N         140.0360  145.8079  160.3379 N.am    1  UNL1       -0.3252
     33 C         140.7253  145.4531  159.0538 C.2     1  UNL1        0.2482
     34 O         142.1289  145.9186  158.8026 O.2     1  UNL1       -0.2702
     35 H         140.5048  146.3463  161.0158 H       1  UNL1        0.1453
     36 H         139.1147  145.5024  160.5028 H       1  UNL1        0.1453
     37 C         142.6632  138.4851  162.4612 C.3     1  UNL1        0.1245
     38 C         141.7114  137.4958  161.8569 C.3     1  UNL1        0.0969
     39 N         140.2370  137.7714  161.8663 N.3     1  UNL1       -0.2710
     40 C         139.2347  138.2165  160.8430 C.3     1  UNL1        0.0736
     41 C         138.1519  138.1611  161.8795 C.3     1  UNL1        0.0346
     42 C         139.1542  137.7160  162.9028 C.3     1  UNL1        0.0736
@<TRIPOS>BOND
     1    32    33   am
     2    33    34    2
     3    33    23    1
     4    23    24   ar
     5    24    25    1
     6    24    26   ar
     7    26    27   ar
     8    27    28   ar
     9    28    29   ar
    10    29    17    1
    11    17    18    1
    12    18    19    1
    13    19    20    1
    14    20     1    1
    15     1     2   ar
    16     2     3   ar
    17     3     6    1
    18     6     7   ar
    19     7     8   ar
    20     8     9   ar
    21     9    10    1
    22     9    11   ar
    23    11    13    1
    24    13    14    1
    25    13    15    1
    26    13    16    1
    27    11    12   ar
    28     3     4   ar
    29     4     5   ar
    30     5    37    1
    31    37    38    1
    32    38    39    1
    33    39    40    1
    34    40    41    1
    35    41    42    1
    36    20    21    1
    37    21    22    1
    38    29    23   ar
    39    22    17    1
    40     5     1   ar
    41    42    39    1
    42    12     6   ar
    43    32    35    1
    44    32    36    1
    45    25    30    1
    46    25    31    1
@<TRIPOS>MOLECULE
*****
 42 46 0 0 0
SMALL
GASTEIGER

@<TRIPOS>ATOM
      1 C         140.9066  140.5018  163.2184 C.ar    1  UNL1        0.1200
      2 N         140.4070  140.8814  164.5808 N.ar    1  UNL1       -0.2309
      3 C         140.9952  139.9232  165.5737 C.ar    1  UNL1        0.0997
      4 C         141.8584  138.9514  164.8250 C.ar    1  UNL1        0.0961
      5 N         141.8036  139.3090  163.3693 N.ar    1  UNL1       -0.3123
      6 C         140.7613  139.9348  167.0554 C.ar    1  UNL1        0.0193
      7 C         139.3803  140.1625  167.5949 C.ar    1  UNL1        0.0038
      8 C         139.1463  140.1740  169.0764 C.ar    1  UNL1        0.0296
      9 C         140.2934  139.9579  170.0186 C.ar    1  UNL1        0.1440
     10 F         140.0596  139.9694  171.5001 F       1  UNL1       -0.2042
     11 C         141.6744  139.7302  169.4791 C.ar    1  UNL1        0.0988
     12 C         141.9083  139.7186  167.9975 C.ar    1  UNL1        0.0077
     13 C         142.8214  139.5140  170.4212 C.3     1  UNL1        0.4207
     14 F         143.9685  139.2979  171.3632 F       1  UNL1       -0.1658
     15 F         142.6379  138.0299  170.3041 F       1  UNL1       -0.1658
     16 F         143.0050  140.9981  170.5382 F       1  UNL1       -0.1658
     17 N         139.8926  142.5770  159.3563 N.pl3   1  UNL1       -0.2930
     18 C         141.3119  142.1906  159.6500 C.3     1  UNL1        0.0926
     19 C         141.6499  141.4989  160.9373 C.3     1  UNL1        0.0290
     20 C         140.5686  141.1935  161.9310 C.3     1  UNL1        0.0603
     21 C         139.1493  141.5799  161.6374 C.3     1  UNL1        0.0290
     22 C         138.8113  142.2717  160.3500 C.3     1  UNL1        0.0926
     23 C         139.9447  144.7024  157.8630 C.ar    1  UNL1        0.1157
     24 C         139.6067  145.3941  156.5757 C.ar    1  UNL1        0.1342
     25 N         139.9968  146.8279  156.3697 N.pl3   1  UNL1       -0.3424
     26 N         138.8787  144.6522  155.4943 N.ar    1  UNL1       -0.2092
     27 C         138.4886  143.2185  155.7002 C.ar    1  UNL1        0.2012
     28 N         138.8266  142.5269  156.9876 N.ar    1  UNL1       -0.2088
     29 C         139.5546  143.2688  158.0690 C.ar    1  UNL1        0.1405
     30 H         140.4747  147.3148  157.0794 H       1  UNL1        0.1437
     31 H         139.7750  147.2818  155.5247 H       1  UNL1        0.1437
     32 N         139.9777  145.7612  160.2353 N.am    1  UNL1       -0.3252
     33 C         140.6728  145.4444  158.9444 C.2     1  UNL1        0.2482
     34 O         142.0959  145.8696  158.7349 O.2     1  UNL1       -0.2702
     35 H         140.4556  146.2481  160.9451 H       1  UNL1        0.1453
     36 H         139.0437  145.4821  160.3729 H       1  UNL1        0.1453
     37 C         142.5201  138.5986  162.2593 C.3     1  UNL1        0.1245
     38 C         143.9768  138.8620  162.0174 C.3     1  UNL1        0.0969
     39 N         144.6497  140.0247  162.6847 N.3     1  UNL1       -0.2710
     40 C         144.9888  141.4288  162.2803 C.3     1  UNL1        0.0736
     41 C         145.6013  141.6690  163.6283 C.3     1  UNL1        0.0346
     42 C         145.2621  140.2650  164.0327 C.3     1  UNL1        0.0736
@<TRIPOS>BOND
     1    32    33   am
     2    33    34    2
     3    33    23    1
     4    23    24   ar
     5    24    25    1
     6    24    26   ar
     7    26    27   ar
     8    27    28   ar
     9    28    29   ar
    10    29    17    1
    11    17    18    1
    12    18    19    1
    13    19    20    1
    14    20     1    1
    15     1     2   ar
    16     2     3   ar
    17     3     6    1
    18     6     7   ar
    19     7     8   ar
    20     8     9   ar
    21     9    10    1
    22     9    11   ar
    23    11    13    1
    24    13    14    1
    25    13    15    1
    26    13    16    1
    27    11    12   ar
    28     3     4   ar
    29     4     5   ar
    30     5    37    1
    31    37    38    1
    32    38    39    1
    33    39    40    1
    34    40    41    1
    35    41    42    1
    36    20    21    1
    37    21    22    1
    38    29    23   ar
    39    22    17    1
    40     5     1   ar
    41    42    39    1
    42    12     6   ar
    43    32    35    1
    44    32    36    1
    45    25    30    1
    46    25    31    1
@<TRIPOS>MOLECULE
*****
 42 46 0 0 0
SMALL
GASTEIGER

@<TRIPOS>ATOM
      1 C         140.5017  141.3558  163.1480 C.ar    1  UNL1        0.1200
      2 N         141.0967  142.1886  164.2445 N.ar    1  UNL1       -0.2309
      3 C         141.0009  141.4090  165.5225 C.ar    1  UNL1        0.0997
      4 C         140.3467  140.0945  165.2157 C.ar    1  UNL1        0.0961
      5 N         140.0382  140.0616  163.7482 N.ar    1  UNL1       -0.3123
      6 C         141.4760  141.8641  166.8706 C.ar    1  UNL1        0.0193
      7 C         142.9428  141.8761  167.1842 C.ar    1  UNL1        0.0038
      8 C         143.4179  142.3312  168.5321 C.ar    1  UNL1        0.0296
      9 C         142.4261  142.7743  169.5667 C.ar    1  UNL1        0.1440
     10 F         142.9011  143.2294  170.9147 F       1  UNL1       -0.2042
     11 C         140.9593  142.7623  169.2531 C.ar    1  UNL1        0.0988
     12 C         140.4842  142.3072  167.9050 C.ar    1  UNL1        0.0077
     13 C         139.9675  143.2054  170.2875 C.3     1  UNL1        0.4207
     14 F         138.9758  143.6485  171.3219 F       1  UNL1       -0.1658
     15 F         140.3852  144.6307  170.0774 F       1  UNL1       -0.1658
     16 F         139.5499  141.7801  170.4976 F       1  UNL1       -0.1658
     17 N         140.1659  142.5335  158.8178 N.pl3   1  UNL1       -0.2930
     18 C         138.9894  142.6988  159.7334 C.3     1  UNL1        0.0926
     19 C         139.1012  142.3063  161.1768 C.3     1  UNL1        0.0290
     20 C         140.3898  141.7484  161.7046 C.3     1  UNL1        0.0603
     21 C         141.5663  141.5831  160.7890 C.3     1  UNL1        0.0290
     22 C         141.4544  141.9757  159.3456 C.3     1  UNL1        0.0926
     23 C         140.4927  144.2906  156.9320 C.ar    1  UNL1        0.1157
     24 C         140.3808  144.6831  155.4887 C.ar    1  UNL1        0.1342
     25 N         140.8195  146.0476  155.0463 N.pl3   1  UNL1       -0.3424
     26 N         139.8301  143.7112  154.4877 N.ar    1  UNL1       -0.2092
     27 C         139.3913  142.3467  154.9300 C.ar    1  UNL1        0.2012
     28 N         139.5033  141.9542  156.3733 N.ar    1  UNL1       -0.2088
     29 C         140.0540  142.9261  157.3744 C.ar    1  UNL1        0.1405
     30 H         141.1810  146.6855  155.7033 H       1  UNL1        0.1437
     31 H         140.7461  146.3052  154.0989 H       1  UNL1        0.1437
     32 N         142.5133  145.5602  157.9592 N.am    1  UNL1       -0.3252
     33 C         141.0434  145.2625  157.9331 C.2     1  UNL1        0.2482
     34 O         140.1243  145.9368  158.9079 O.2     1  UNL1       -0.2702
     35 H         142.8748  146.1981  158.6162 H       1  UNL1        0.1453
     36 H         143.1167  145.1177  157.3194 H       1  UNL1        0.1453
     37 C         139.3815  138.9328  163.0104 C.3     1  UNL1        0.1245
     38 C         140.1937  137.7506  162.5713 C.3     1  UNL1        0.0969
     39 N         141.6273  137.9332  162.1695 N.3     1  UNL1       -0.2710
     40 C         142.3907  137.8216  160.8832 C.3     1  UNL1        0.0736
     41 C         143.6547  138.1912  161.6013 C.3     1  UNL1        0.0346
     42 C         142.8912  138.3028  162.8876 C.3     1  UNL1        0.0736
@<TRIPOS>BOND
     1    32    33   am
     2    33    34    2
     3    33    23    1
     4    23    24   ar
     5    24    25    1
     6    24    26   ar
     7    26    27   ar
     8    27    28   ar
     9    28    29   ar
    10    29    17    1
    11    17    18    1
    12    18    19    1
    13    19    20    1
    14    20     1    1
    15     1     2   ar
    16     2     3   ar
    17     3     6    1
    18     6     7   ar
    19     7     8   ar
    20     8     9   ar
    21     9    10    1
    22     9    11   ar
    23    11    13    1
    24    13    14    1
    25    13    15    1
    26    13    16    1
    27    11    12   ar
    28     3     4   ar
    29     4     5   ar
    30     5    37    1
    31    37    38    1
    32    38    39    1
    33    39    40    1
    34    40    41    1
    35    41    42    1
    36    20    21    1
    37    21    22    1
    38    29    23   ar
    39    22    17    1
    40     5     1   ar
    41    42    39    1
    42    12     6   ar
    43    32    35    1
    44    32    36    1
    45    25    30    1
    46    25    31    1
@<TRIPOS>MOLECULE
*****
 42 46 0 0 0
SMALL
GASTEIGER

@<TRIPOS>ATOM
      1 C         142.3293  141.5613  162.8298 C.ar    1  UNL1        0.1200
      2 N         142.2902  140.9929  164.2174 N.ar    1  UNL1       -0.2309
      3 C         142.1739  142.1349  165.1830 C.ar    1  UNL1        0.0997
      4 C         142.1412  143.4092  164.3921 C.ar    1  UNL1        0.0961
      5 N         142.2372  143.0546  162.9378 N.ar    1  UNL1       -0.3123
      6 C         142.1029  142.0225  166.6771 C.ar    1  UNL1        0.0193
      7 C         143.2922  142.3896  167.5142 C.ar    1  UNL1        0.0038
      8 C         143.2212  142.2772  169.0082 C.ar    1  UNL1        0.0296
      9 C         141.9608  141.7976  169.6653 C.ar    1  UNL1        0.1440
     10 F         141.8898  141.6852  171.1593 F       1  UNL1       -0.2042
     11 C         140.7715  141.4305  168.8281 C.ar    1  UNL1        0.0988
     12 C         140.8426  141.5430  167.3340 C.ar    1  UNL1        0.0077
     13 C         139.5112  140.9510  169.4851 C.3     1  UNL1        0.4207
     14 F         138.2509  140.4715  170.1420 F       1  UNL1       -0.1658
     15 F         139.6842  139.6091  168.8375 F       1  UNL1       -0.1658
     16 F         139.3382  142.2929  170.1327 F       1  UNL1       -0.1658
     17 N         142.6642  139.2010  159.0132 N.pl3   1  UNL1       -0.2930
     18 C         143.8143  139.2382  159.9753 C.3     1  UNL1        0.0926
     19 C         143.7027  140.0250  161.2475 C.3     1  UNL1        0.0290
     20 C         142.4409  140.7746  161.5576 C.3     1  UNL1        0.0603
     21 C         141.2908  140.7373  160.5955 C.3     1  UNL1        0.0290
     22 C         141.4024  139.9505  159.3232 C.3     1  UNL1        0.0926
     23 C         143.4703  139.0070  156.5509 C.ar    1  UNL1        0.1157
     24 C         143.5819  138.2202  155.2788 C.ar    1  UNL1        0.1342
     25 N         144.2763  138.8131  154.0887 N.pl3   1  UNL1       -0.3424
     26 N         142.9991  136.8405  155.1967 N.ar    1  UNL1       -0.2092
     27 C         142.3047  136.2476  156.3867 C.ar    1  UNL1        0.2012
     28 N         142.1930  137.0344  157.6588 N.ar    1  UNL1       -0.2088
     29 C         142.7758  138.4141  157.7409 C.ar    1  UNL1        0.1405
     30 H         144.6589  139.7187  154.1425 H       1  UNL1        0.1437
     31 H         144.3496  138.2967  153.2537 H       1  UNL1        0.1437
     32 N         145.5191  140.5674  156.8937 N.am    1  UNL1       -0.3252
     33 C         144.0531  140.3868  156.6331 C.2     1  UNL1        0.2482
     34 O         143.1698  141.5859  156.4545 O.2     1  UNL1       -0.2702
     35 H         145.9016  141.4729  156.9476 H       1  UNL1        0.1453
     36 H         146.0989  139.7803  157.0109 H       1  UNL1        0.1453
     37 C         142.2405  144.0233  161.7925 C.3     1  UNL1        0.1245
     38 C         140.9433  144.5024  161.2117 C.3     1  UNL1        0.0969
     39 N         139.6508  144.1962  161.9086 N.3     1  UNL1       -0.2710
     40 C         138.8520  144.8497  162.9971 C.3     1  UNL1        0.0736
     41 C         137.8231  143.7631  162.8943 C.3     1  UNL1        0.0346
     42 C         138.6219  143.1096  161.8059 C.3     1  UNL1        0.0736
@<TRIPOS>BOND
     1    32    33   am
     2    33    34    2
     3    33    23    1
     4    23    24   ar
     5    24    25    1
     6    24    26   ar
     7    26    27   ar
     8    27    28   ar
     9    28    29   ar
    10    29    17    1
    11    17    18    1
    12    18    19    1
    13    19    20    1
    14    20     1    1
    15     1     2   ar
    16     2     3   ar
    17     3     6    1
    18     6     7   ar
    19     7     8   ar
    20     8     9   ar
    21     9    10    1
    22     9    11   ar
    23    11    13    1
    24    13    14    1
    25    13    15    1
    26    13    16    1
    27    11    12   ar
    28     3     4   ar
    29     4     5   ar
    30     5    37    1
    31    37    38    1
    32    38    39    1
    33    39    40    1
    34    40    41    1
    35    41    42    1
    36    20    21    1
    37    21    22    1
    38    29    23   ar
    39    22    17    1
    40     5     1   ar
    41    42    39    1
    42    12     6   ar
    43    32    35    1
    44    32    36    1
    45    25    30    1
    46    25    31    1
@<TRIPOS>MOLECULE
*****
 42 46 0 0 0
SMALL
GASTEIGER

@<TRIPOS>ATOM
      1 C         140.7036  141.4868  163.4248 C.ar    1  UNL1        0.1200
      2 N         141.3381  141.3522  164.7773 N.ar    1  UNL1       -0.2309
      3 C         140.2442  141.3426  165.8036 C.ar    1  UNL1        0.0997
      4 C         138.9336  141.4714  165.0853 C.ar    1  UNL1        0.0961
      5 N         139.2176  141.5605  163.6152 N.ar    1  UNL1       -0.3123
      6 C         140.4285  141.2250  167.2876 C.ar    1  UNL1        0.0193
      7 C         139.6219  140.2291  168.0669 C.ar    1  UNL1        0.0038
      8 C         139.8061  140.1114  169.5508 C.ar    1  UNL1        0.0296
      9 C         140.7971  140.9898  170.2556 C.ar    1  UNL1        0.1440
     10 F         140.9814  140.8722  171.7395 F       1  UNL1       -0.2042
     11 C         141.6038  141.9857  169.4762 C.ar    1  UNL1        0.0988
     12 C         141.4195  142.1034  167.9922 C.ar    1  UNL1        0.0077
     13 C         142.5947  142.8641  170.1808 C.3     1  UNL1        0.4207
     14 F         143.5856  143.7424  170.8855 F       1  UNL1       -0.1658
     15 F         143.5879  141.7400  170.1853 F       1  UNL1       -0.1658
     16 F         141.6015  143.9882  170.1763 F       1  UNL1       -0.1658
     17 N         142.8768  141.6423  159.4874 N.pl3   1  UNL1       -0.2930
     18 C         143.3089  142.5283  160.6180 C.3     1  UNL1        0.0926
     19 C         142.5845  142.4765  161.9305 C.3     1  UNL1        0.0290
     20 C         141.4280  141.5386  162.1123 C.3     1  UNL1        0.0603
     21 C         140.9960  140.6526  160.9817 C.3     1  UNL1        0.0290
     22 C         141.7204  140.7045  159.6692 C.3     1  UNL1        0.0926
     23 C         143.2959  142.7855  157.1923 C.ar    1  UNL1        0.1157
     24 C         144.0203  142.8374  155.8799 C.ar    1  UNL1        0.1342
     25 N         143.7149  143.9288  154.8972 N.pl3   1  UNL1       -0.3424
     26 N         145.0502  141.7979  155.5501 N.ar    1  UNL1       -0.2092
     27 C         145.3556  140.7065  156.5327 C.ar    1  UNL1        0.2012
     28 N         144.6312  140.6547  157.8451 N.ar    1  UNL1       -0.2088
     29 C         143.6013  141.6942  158.1749 C.ar    1  UNL1        0.1405
     30 H         143.0389  144.6110  155.1136 H       1  UNL1        0.1437
     31 H         144.1903  143.9628  154.0358 H       1  UNL1        0.1437
     32 N         140.8067  143.4905  157.4307 N.am    1  UNL1       -0.3252
     33 C         142.2660  143.8251  157.5221 C.2     1  UNL1        0.2482
     34 O         142.6954  145.1992  157.9431 O.2     1  UNL1       -0.2702
     35 H         140.1307  144.1728  157.6472 H       1  UNL1        0.1453
     36 H         140.5248  142.5886  157.1544 H       1  UNL1        0.1453
     37 C         138.1950  141.6989  162.5265 C.3     1  UNL1        0.1245
     38 C         137.8413  143.0574  161.9981 C.3     1  UNL1        0.0969
     39 N         138.8909  144.1256  161.9124 N.3     1  UNL1       -0.2710
     40 C         139.4295  145.1613  162.8542 C.3     1  UNL1        0.0736
     41 C         140.3753  145.6361  161.7911 C.3     1  UNL1        0.0346
     42 C         139.8366  144.6003  160.8493 C.3     1  UNL1        0.0736
@<TRIPOS>BOND
     1    32    33   am
     2    33    34    2
     3    33    23    1
     4    23    24   ar
     5    24    25    1
     6    24    26   ar
     7    26    27   ar
     8    27    28   ar
     9    28    29   ar
    10    29    17    1
    11    17    18    1
    12    18    19    1
    13    19    20    1
    14    20     1    1
    15     1     2   ar
    16     2     3   ar
    17     3     6    1
    18     6     7   ar
    19     7     8   ar
    20     8     9   ar
    21     9    10    1
    22     9    11   ar
    23    11    13    1
    24    13    14    1
    25    13    15    1
    26    13    16    1
    27    11    12   ar
    28     3     4   ar
    29     4     5   ar
    30     5    37    1
    31    37    38    1
    32    38    39    1
    33    39    40    1
    34    40    41    1
    35    41    42    1
    36    20    21    1
    37    21    22    1
    38    29    23   ar
    39    22    17    1
    40     5     1   ar
    41    42    39    1
    42    12     6   ar
    43    32    35    1
    44    32    36    1
    45    25    30    1
    46    25    31    1
@<TRIPOS>MOLECULE
*****
 42 46 0 0 0
SMALL
GASTEIGER

@<TRIPOS>ATOM
      1 C         140.9155  140.6344  162.4287 C.ar    1  UNL1        0.1200
      2 N         140.9217  140.1194  163.8374 N.ar    1  UNL1       -0.2309
      3 C         140.3469  141.1848  164.7231 C.ar    1  UNL1        0.0997
      4 C         139.9854  142.3584  163.8616 C.ar    1  UNL1        0.0961
      5 N         140.3368  142.0182  162.4436 N.ar    1  UNL1       -0.3123
      6 C         140.1654  141.0929  166.2092 C.ar    1  UNL1        0.0193
      7 C         139.3678  139.9678  166.7992 C.ar    1  UNL1        0.0038
      8 C         139.1863  139.8758  168.2853 C.ar    1  UNL1        0.0296
      9 C         139.8024  140.9090  169.1815 C.ar    1  UNL1        0.1440
     10 F         139.6209  140.8170  170.6676 F       1  UNL1       -0.2042
     11 C         140.6000  142.0340  168.5915 C.ar    1  UNL1        0.0988
     12 C         140.7815  142.1260  167.1054 C.ar    1  UNL1        0.0077
     13 C         141.2161  143.0671  169.4877 C.3     1  UNL1        0.4207
     14 F         141.8322  144.1002  170.3838 F       1  UNL1       -0.1658
     15 F         140.0966  144.0126  169.1674 F       1  UNL1       -0.1658
     16 F         142.3357  142.1216  169.8080 F       1  UNL1       -0.1658
     17 N         142.3763  138.4174  158.7954 N.pl3   1  UNL1       -0.2930
     18 C         140.9431  138.8512  158.8834 C.3     1  UNL1        0.0926
     19 C         140.4561  139.5902  160.0944 C.3     1  UNL1        0.0290
     20 C         141.4024  139.8954  161.2176 C.3     1  UNL1        0.0603
     21 C         142.8356  139.4616  161.1297 C.3     1  UNL1        0.0290
     22 C         143.3225  138.7225  159.9185 C.3     1  UNL1        0.0926
     23 C         143.5885  138.4150  156.4974 C.ar    1  UNL1        0.1157
     24 C         144.0753  137.6760  155.2864 C.ar    1  UNL1        0.1342
     25 N         144.8006  138.4127  154.1994 N.pl3   1  UNL1       -0.3424
     26 N         143.8370  136.2003  155.1621 N.ar    1  UNL1       -0.2092
     27 C         143.1117  135.4636  156.2490 C.ar    1  UNL1        0.2012
     28 N         142.6249  136.2026  157.4600 N.ar    1  UNL1       -0.2088
     29 C         142.8632  137.6783  157.5843 C.ar    1  UNL1        0.1405
     30 H         144.9571  139.3812  154.2809 H       1  UNL1        0.1437
     31 H         145.1202  137.9276  153.4046 H       1  UNL1        0.1437
     32 N         145.1505  140.3980  157.1120 N.am    1  UNL1       -0.3252
     33 C         143.8268  139.8907  156.6216 C.2     1  UNL1        0.2482
     34 O         142.7415  140.8592  156.2555 O.2     1  UNL1       -0.2702
     35 H         145.3069  141.3666  157.1935 H       1  UNL1        0.1453
     36 H         145.8629  139.7624  157.3523 H       1  UNL1        0.1453
     37 C         140.1435  142.9060  161.2501 C.3     1  UNL1        0.1245
     38 C         141.1854  143.9257  160.8972 C.3     1  UNL1        0.0969
     39 N         142.5397  143.8674  161.5394 N.3     1  UNL1       -0.2710
     40 C         143.7973  143.0876  161.2939 C.3     1  UNL1        0.0736
     41 C         144.4550  143.7851  162.4475 C.3     1  UNL1        0.0346
     42 C         143.1974  144.5649  162.6930 C.3     1  UNL1        0.0736
@<TRIPOS>BOND
     1    32    33   am
     2    33    34    2
     3    33    23    1
     4    23    24   ar
     5    24    25    1
     6    24    26   ar
     7    26    27   ar
     8    27    28   ar
     9    28    29   ar
    10    29    17    1
    11    17    18    1
    12    18    19    1
    13    19    20    1
    14    20     1    1
    15     1     2   ar
    16     2     3   ar
    17     3     6    1
    18     6     7   ar
    19     7     8   ar
    20     8     9   ar
    21     9    10    1
    22     9    11   ar
    23    11    13    1
    24    13    14    1
    25    13    15    1
    26    13    16    1
    27    11    12   ar
    28     3     4   ar
    29     4     5   ar
    30     5    37    1
    31    37    38    1
    32    38    39    1
    33    39    40    1
    34    40    41    1
    35    41    42    1
    36    20    21    1
    37    21    22    1
    38    29    23   ar
    39    22    17    1
    40     5     1   ar
    41    42    39    1
    42    12     6   ar
    43    32    35    1
    44    32    36    1
    45    25    30    1
    46    25    31    1
@<TRIPOS>MOLECULE
*****
 42 46 0 0 0
SMALL
GASTEIGER

@<TRIPOS>ATOM
      1 C         141.4678  139.7651  163.3891 C.ar    1  UNL1        0.1200
      2 N         142.1032  140.2381  164.6629 N.ar    1  UNL1       -0.2309
      3 C         141.1723  139.9139  165.7935 C.ar    1  UNL1        0.0997
      4 C         139.9615  139.2404  165.2185 C.ar    1  UNL1        0.0961
      5 N         140.1442  139.1485  163.7326 N.ar    1  UNL1       -0.3123
      6 C         141.4104  140.2109  167.2444 C.ar    1  UNL1        0.0193
      7 C         142.3491  139.3542  168.0412 C.ar    1  UNL1        0.0038
      8 C         142.5872  139.6511  169.4920 C.ar    1  UNL1        0.0296
      9 C         141.8866  140.8049  170.1463 C.ar    1  UNL1        0.1440
     10 F         142.1246  141.1020  171.5971 F       1  UNL1       -0.2042
     11 C         140.9479  141.6617  169.3495 C.ar    1  UNL1        0.0988
     12 C         140.7098  141.3647  167.8986 C.ar    1  UNL1        0.0077
     13 C         140.2473  142.8154  170.0037 C.3     1  UNL1        0.4207
     14 F         139.5466  143.9692  170.6578 F       1  UNL1       -0.1658
     15 F         141.4321  143.6924  169.7260 F       1  UNL1       -0.1658
     16 F         139.0624  141.9385  170.2814 F       1  UNL1       -0.1658
     17 N         143.2240  140.1315  159.2622 N.pl3   1  UNL1       -0.2930
     18 C         143.9117  139.2925  160.2982 C.3     1  UNL1        0.0926
     19 C         143.3263  139.1704  161.6738 C.3     1  UNL1        0.0290
     20 C         142.0532  139.8872  162.0135 C.3     1  UNL1        0.0603
     21 C         141.3655  140.7262  160.9776 C.3     1  UNL1        0.0290
     22 C         141.9509  140.8483  159.6019 C.3     1  UNL1        0.0926
     23 C         144.4253  141.5483  157.4458 C.ar    1  UNL1        0.1157
     24 C         145.0107  141.6704  156.0702 C.ar    1  UNL1        0.1342
     25 N         145.6266  142.9652  155.6293 N.pl3   1  UNL1       -0.3424
     26 N         144.9803  140.4977  155.1354 N.ar    1  UNL1       -0.2092
     27 C         144.3644  139.2030  155.5761 C.ar    1  UNL1        0.2012
     28 N         143.7790  139.0809  156.9517 N.ar    1  UNL1       -0.2088
     29 C         143.8095  140.2536  157.8866 C.ar    1  UNL1        0.1405
     30 H         145.6466  143.7349  156.2429 H       1  UNL1        0.1437
     31 H         146.0108  143.0453  154.7265 H       1  UNL1        0.1437
     32 N         143.5215  143.8749  158.1670 N.am    1  UNL1       -0.3252
     33 C         144.4557  142.7210  158.3806 C.2     1  UNL1        0.2482
     34 O         145.4205  142.7398  159.5290 O.2     1  UNL1       -0.2702
     35 H         143.5415  144.6446  158.7806 H       1  UNL1        0.1453
     36 H         142.8883  143.8626  157.4133 H       1  UNL1        0.1453
     37 C         139.1736  138.5458  162.7606 C.3     1  UNL1        0.1245
     38 C         137.9044  139.2697  162.4216 C.3     1  UNL1        0.0969
     39 N         137.8620  140.7686  162.4621 N.3     1  UNL1       -0.2710
     40 C         137.5807  141.7934  163.5206 C.3     1  UNL1        0.0736
     41 C         137.8022  142.8882  162.5194 C.3     1  UNL1        0.0346
     42 C         138.0835  141.8634  161.4610 C.3     1  UNL1        0.0736
@<TRIPOS>BOND
     1    32    33   am
     2    33    34    2
     3    33    23    1
     4    23    24   ar
     5    24    25    1
     6    24    26   ar
     7    26    27   ar
     8    27    28   ar
     9    28    29   ar
    10    29    17    1
    11    17    18    1
    12    18    19    1
    13    19    20    1
    14    20     1    1
    15     1     2   ar
    16     2     3   ar
    17     3     6    1
    18     6     7   ar
    19     7     8   ar
    20     8     9   ar
    21     9    10    1
    22     9    11   ar
    23    11    13    1
    24    13    14    1
    25    13    15    1
    26    13    16    1
    27    11    12   ar
    28     3     4   ar
    29     4     5   ar
    30     5    37    1
    31    37    38    1
    32    38    39    1
    33    39    40    1
    34    40    41    1
    35    41    42    1
    36    20    21    1
    37    21    22    1
    38    29    23   ar
    39    22    17    1
    40     5     1   ar
    41    42    39    1
    42    12     6   ar
    43    32    35    1
    44    32    36    1
    45    25    30    1
    46    25    31    1
@<TRIPOS>MOLECULE
*****
 42 46 0 0 0
SMALL
GASTEIGER

@<TRIPOS>ATOM
      1 C         141.3651  141.3311  162.9862 C.ar    1  UNL1        0.1200
      2 N         141.5344  140.5384  164.2483 N.ar    1  UNL1       -0.2309
      3 C         142.0296  141.4678  165.3164 C.ar    1  UNL1        0.0997
      4 C         142.1663  142.8350  164.7145 C.ar    1  UNL1        0.0961
      5 N         141.7556  142.7504  163.2743 N.ar    1  UNL1       -0.3123
      6 C         142.3345  141.0955  166.7372 C.ar    1  UNL1        0.0193
      7 C         142.3028  139.6563  167.1587 C.ar    1  UNL1        0.0038
      8 C         142.6077  139.2840  168.5793 C.ar    1  UNL1        0.0296
      9 C         142.9444  140.3509  169.5786 C.ar    1  UNL1        0.1440
     10 F         143.2494  139.9786  170.9992 F       1  UNL1       -0.2042
     11 C         142.9762  141.7901  169.1570 C.ar    1  UNL1        0.0988
     12 C         142.6712  142.1624  167.7363 C.ar    1  UNL1        0.0077
     13 C         143.3129  142.8569  170.1562 C.3     1  UNL1        0.4207
     14 F         143.6496  143.9238  171.1554 F       1  UNL1       -0.1658
     15 F         141.8589  143.2067  170.2727 F       1  UNL1       -0.1658
     16 F         144.7669  142.5072  170.0397 F       1  UNL1       -0.1658
     17 N         139.9364  139.7319  159.0300 N.pl3   1  UNL1       -0.2930
     18 C         141.3909  140.0356  159.2350 C.3     1  UNL1        0.0926
     19 C         141.8672  140.5687  160.5537 C.3     1  UNL1        0.0290
     20 C         140.8888  140.7980  161.6675 C.3     1  UNL1        0.0603
     21 C         139.4343  140.4943  161.4624 C.3     1  UNL1        0.0290
     22 C         138.9580  139.9613  160.1436 C.3     1  UNL1        0.0926
     23 C         138.8179  140.1206  156.7174 C.ar    1  UNL1        0.1157
     24 C         138.3417  139.5875  155.3987 C.ar    1  UNL1        0.1342
     25 N         137.6994  140.5094  154.4048 N.pl3   1  UNL1       -0.3424
     26 N         138.5078  138.1326  155.0738 N.ar    1  UNL1       -0.2092
     27 C         139.1500  137.2108  156.0676 C.ar    1  UNL1        0.2012
     28 N         139.6262  137.7439  157.3863 N.ar    1  UNL1       -0.2088
     29 C         139.4601  139.1988  157.7112 C.ar    1  UNL1        0.1405
     30 H         137.5904  141.4643  154.6181 H       1  UNL1        0.1437
     31 H         137.3869  140.1595  153.5393 H       1  UNL1        0.1437
     32 N         139.8510  142.4754  157.0883 N.am    1  UNL1       -0.3252
     33 C         138.6518  141.5756  157.0423 C.2     1  UNL1        0.2482
     34 O         137.2865  142.1307  157.3212 O.2     1  UNL1       -0.2702
     35 H         139.7420  143.4304  157.3016 H       1  UNL1        0.1453
     36 H         140.7471  142.1111  156.9053 H       1  UNL1        0.1453
     37 C         141.7384  143.8859  162.2943 C.3     1  UNL1        0.1245
     38 C         140.5692  144.8246  162.2544 C.3     1  UNL1        0.0969
     39 N         139.3638  144.5580  163.1064 N.3     1  UNL1       -0.2710
     40 C         138.9958  144.8234  164.5361 C.3     1  UNL1        0.0736
     41 C         137.6591  144.1809  164.3112 C.3     1  UNL1        0.0346
     42 C         138.0272  143.9155  162.8816 C.3     1  UNL1        0.0736
@<TRIPOS>BOND
     1    32    33   am
     2    33    34    2
     3    33    23    1
     4    23    24   ar
     5    24    25    1
     6    24    26   ar
     7    26    27   ar
     8    27    28   ar
     9    28    29   ar
    10    29    17    1
    11    17    18    1
    12    18    19    1
    13    19    20    1
    14    20     1    1
    15     1     2   ar
    16     2     3   ar
    17     3     6    1
    18     6     7   ar
    19     7     8   ar
    20     8     9   ar
    21     9    10    1
    22     9    11   ar
    23    11    13    1
    24    13    14    1
    25    13    15    1
    26    13    16    1
    27    11    12   ar
    28     3     4   ar
    29     4     5   ar
    30     5    37    1
    31    37    38    1
    32    38    39    1
    33    39    40    1
    34    40    41    1
    35    41    42    1
    36    20    21    1
    37    21    22    1
    38    29    23   ar
    39    22    17    1
    40     5     1   ar
    41    42    39    1
    42    12     6   ar
    43    32    35    1
    44    32    36    1
    45    25    30    1
    46    25    31    1
