@<TRIPOS>MOLECULE
*****
 22 25 0 0 0
SMALL
GASTEIGER

@<TRIPOS>ATOM
      1 O         137.8266  138.5310  166.5343 O.2     1  UNL1       -0.2523
      2 C         139.1504  139.1160  166.1404 C.2     1  UNL1        0.3077
      3 N         139.6672  138.9295  164.7447 N.am    1  UNL1       -0.2612
      4 C         140.9911  139.5146  164.3507 C.3     1  UNL1        0.1123
      5 C         141.5080  139.3281  162.9550 C.3     1  UNL1        0.0939
      6 N         140.7010  138.5566  161.9532 N.3     1  UNL1       -0.2711
      7 C         139.3772  137.9715  162.3472 C.3     1  UNL1        0.0939
      8 C         138.8603  138.1580  163.7429 C.3     1  UNL1        0.1123
      9 N         139.9573  139.8876  167.1422 N.am    1  UNL1       -0.2558
     10 C         139.5719  140.1549  168.5670 C.3     1  UNL1        0.1217
     11 C         140.6678  140.9598  169.2004 C.ar    1  UNL1       -0.0046
     12 C         140.8352  141.5129  170.5846 C.ar    1  UNL1       -0.0029
     13 C         142.0654  142.2961  170.9355 C.ar    1  UNL1       -0.0003
     14 C         143.1282  142.5262  169.9023 C.ar    1  UNL1       -0.0003
     15 C         142.9607  141.9731  168.5181 C.ar    1  UNL1       -0.0029
     16 C         141.7305  141.1899  168.1672 C.ar    1  UNL1       -0.0046
     17 C         141.2914  140.5272  166.8951 C.3     1  UNL1        0.1217
     18 C         141.2180  138.3701  160.5575 C.3     1  UNL1        0.0576
     19 C         140.4543  138.6290  159.2926 C.3     1  UNL1        0.0160
     20 C         141.3536  138.3109  158.1349 C.3     1  UNL1        0.0014
     21 C         142.6730  137.8554  158.6844 C.3     1  UNL1        0.0014
     22 C         142.5891  137.8919  160.1816 C.3     1  UNL1        0.0160
@<TRIPOS>BOND
     1     1     2    2
     2     2     3   am
     3     3     4    1
     4     4     5    1
     5     5     6    1
     6     6    18    1
     7    18    19    1
     8    19    20    1
     9    20    21    1
    10    21    22    1
    11     6     7    1
    12     7     8    1
    13     2     9   am
    14     9    10    1
    15    10    11    1
    16    11    12   ar
    17    12    13   ar
    18    13    14   ar
    19    14    15   ar
    20    15    16   ar
    21    16    17    1
    22     8     3    1
    23    17     9    1
    24    22    18    1
    25    16    11   ar
@<TRIPOS>MOLECULE
*****
 22 25 0 0 0
SMALL
GASTEIGER

@<TRIPOS>ATOM
      1 O         138.9884  145.1103  165.3614 O.2     1  UNL1       -0.2523
      2 C         139.9383  144.2076  164.6314 C.2     1  UNL1        0.3077
      3 N         140.2383  144.4494  163.1818 N.am    1  UNL1       -0.2612
      4 C         141.1881  143.5467  162.4517 C.3     1  UNL1        0.1123
      5 C         141.4881  143.7884  161.0021 C.3     1  UNL1        0.0939
      6 N         140.8383  144.9329  160.2824 N.3     1  UNL1       -0.2711
      7 C         139.8884  145.8356  161.0124 C.3     1  UNL1        0.0939
      8 C         139.5884  145.5938  162.4621 C.3     1  UNL1        0.1123
      9 N         140.5881  143.0632  165.3511 N.am    1  UNL1       -0.2558
     10 C         140.3863  142.6992  166.7922 C.3     1  UNL1        0.1217
     11 C         141.2273  141.4928  167.0878 C.ar    1  UNL1       -0.0046
     12 C         141.4293  140.6925  168.3402 C.ar    1  UNL1       -0.0029
     13 C         142.3529  139.5106  168.3342 C.ar    1  UNL1       -0.0003
     14 C         143.0745  139.1290  167.0758 C.ar    1  UNL1       -0.0003
     15 C         142.8725  139.9293  165.8233 C.ar    1  UNL1       -0.0029
     16 C         141.9490  141.1112  165.8293 C.ar    1  UNL1       -0.0046
     17 C         141.5539  142.0817  164.7560 C.3     1  UNL1        0.1217
     18 C         141.1383  145.1746  158.8327 C.3     1  UNL1        0.0576
     19 C         142.2876  144.5959  158.0618 C.3     1  UNL1        0.0160
     20 C         142.2014  145.1011  156.6520 C.3     1  UNL1        0.0014
     21 C         140.9988  145.9921  156.5517 C.3     1  UNL1        0.0014
     22 C         140.3418  146.0375  157.8994 C.3     1  UNL1        0.0160
@<TRIPOS>BOND
     1     1     2    2
     2     2     3   am
     3     3     4    1
     4     4     5    1
     5     5     6    1
     6     6    18    1
     7    18    19    1
     8    19    20    1
     9    20    21    1
    10    21    22    1
    11     6     7    1
    12     7     8    1
    13     2     9   am
    14     9    10    1
    15    10    11    1
    16    11    12   ar
    17    12    13   ar
    18    13    14   ar
    19    14    15   ar
    20    15    16   ar
    21    16    17    1
    22     8     3    1
    23    17     9    1
    24    22    18    1
    25    16    11   ar
@<TRIPOS>MOLECULE
*****
 22 25 0 0 0
SMALL
GASTEIGER

@<TRIPOS>ATOM
      1 O         139.0984  144.9917  164.5873 O.2     1  UNL1       -0.2523
      2 C         139.2534  143.9345  163.5345 C.2     1  UNL1        0.3077
      3 N         139.5507  144.3255  162.1172 N.am    1  UNL1       -0.2612
      4 C         139.7057  143.2683  161.0643 C.3     1  UNL1        0.1123
      5 C         140.0030  143.6592  159.6471 C.3     1  UNL1        0.0939
      6 N         140.1453  145.1073  159.2825 N.3     1  UNL1       -0.2711
      7 C         139.9903  146.1644  160.3353 C.3     1  UNL1        0.0939
      8 C         139.6930  145.7735  161.7527 C.3     1  UNL1        0.1123
      9 N         139.1111  142.4865  163.8990 N.am    1  UNL1       -0.2558
     10 C         138.8162  141.9465  165.2670 C.3     1  UNL1        0.1217
     11 C         138.7616  140.4504  165.1730 C.ar    1  UNL1       -0.0046
     12 C         138.5078  139.3887  166.2017 C.ar    1  UNL1       -0.0029
     13 C         138.5152  137.9424  165.8043 C.ar    1  UNL1       -0.0003
     14 C         138.7763  137.5577  164.3782 C.ar    1  UNL1       -0.0003
     15 C         139.0301  138.6194  163.3494 C.ar    1  UNL1       -0.0029
     16 C         139.0228  140.0658  163.7468 C.ar    1  UNL1       -0.0046
     17 C         139.2388  141.3241  162.9595 C.3     1  UNL1        0.1217
     18 C         140.4426  145.4982  157.8652 C.3     1  UNL1        0.0576
     19 C         141.4944  144.8904  156.9852 C.3     1  UNL1        0.0160
     20 C         141.4422  145.5821  155.6551 C.3     1  UNL1        0.0014
     21 C         140.3582  146.6173  155.7132 C.3     1  UNL1        0.0014
     22 C         139.7405  146.5654  157.0791 C.3     1  UNL1        0.0160
@<TRIPOS>BOND
     1     1     2    2
     2     2     3   am
     3     3     4    1
     4     4     5    1
     5     5     6    1
     6     6    18    1
     7    18    19    1
     8    19    20    1
     9    20    21    1
    10    21    22    1
    11     6     7    1
    12     7     8    1
    13     2     9   am
    14     9    10    1
    15    10    11    1
    16    11    12   ar
    17    12    13   ar
    18    13    14   ar
    19    14    15   ar
    20    15    16   ar
    21    16    17    1
    22     8     3    1
    23    17     9    1
    24    22    18    1
    25    16    11   ar
@<TRIPOS>MOLECULE
*****
 22 25 0 0 0
SMALL
GASTEIGER

@<TRIPOS>ATOM
      1 O         144.6951  141.1056  162.6281 O.2     1  UNL1       -0.2523
      2 C         143.4515  141.9219  162.8204 C.2     1  UNL1        0.3077
      3 N         142.7666  141.9423  164.1547 N.am    1  UNL1       -0.2612
      4 C         141.5229  142.7586  164.3470 C.3     1  UNL1        0.1123
      5 C         140.8381  142.7790  165.6813 C.3     1  UNL1        0.0939
      6 N         141.3968  141.9831  166.8234 N.3     1  UNL1       -0.2711
      7 C         142.6404  141.1668  166.6311 C.3     1  UNL1        0.0939
      8 C         143.3253  141.1464  165.2968 C.3     1  UNL1        0.1123
      9 N         142.8928  142.7178  161.6783 N.am    1  UNL1       -0.2558
     10 C         143.4651  142.7948  160.2939 C.3     1  UNL1        0.1217
     11 C         142.5897  143.7011  159.4801 C.ar    1  UNL1       -0.0046
     12 C         142.6626  144.1488  158.0504 C.ar    1  UNL1       -0.0029
     13 C         141.6220  145.0796  157.5020 C.ar    1  UNL1       -0.0003
     14 C         140.5086  145.5627  158.3834 C.ar    1  UNL1       -0.0003
     15 C         140.4357  145.1150  159.8132 C.ar    1  UNL1       -0.0029
     16 C         141.4763  144.1842  160.3615 C.ar    1  UNL1       -0.0046
     17 C         141.6636  143.5765  161.7200 C.3     1  UNL1        0.1217
     18 C         140.7118  142.0035  168.1578 C.3     1  UNL1        0.0576
     19 C         140.6810  143.1577  169.1153 C.3     1  UNL1        0.0160
     20 C         139.8876  142.7409  170.3182 C.3     1  UNL1        0.0014
     21 C         139.4281  141.3292  170.1040 C.3     1  UNL1        0.0014
     22 C         139.9375  140.8735  168.7688 C.3     1  UNL1        0.0160
@<TRIPOS>BOND
     1     1     2    2
     2     2     3   am
     3     3     4    1
     4     4     5    1
     5     5     6    1
     6     6    18    1
     7    18    19    1
     8    19    20    1
     9    20    21    1
    10    21    22    1
    11     6     7    1
    12     7     8    1
    13     2     9   am
    14     9    10    1
    15    10    11    1
    16    11    12   ar
    17    12    13   ar
    18    13    14   ar
    19    14    15   ar
    20    15    16   ar
    21    16    17    1
    22     8     3    1
    23    17     9    1
    24    22    18    1
    25    16    11   ar
@<TRIPOS>MOLECULE
*****
 22 25 0 0 0
SMALL
GASTEIGER

@<TRIPOS>ATOM
      1 O         138.1107  138.9557  165.0433 O.2     1  UNL1       -0.2523
      2 C         138.9091  140.2182  165.1799 C.2     1  UNL1        0.3077
      3 N         139.1484  141.0876  163.9813 N.am    1  UNL1       -0.2612
      4 C         139.9469  142.3501  164.1179 C.3     1  UNL1        0.1123
      5 C         140.1862  143.2196  162.9192 C.3     1  UNL1        0.0939
      6 N         139.6271  142.8265  161.5840 N.3     1  UNL1       -0.2711
      7 C         138.8287  141.5641  161.4473 C.3     1  UNL1        0.0939
      8 C         138.5894  140.6946  162.6460 C.3     1  UNL1        0.1123
      9 N         139.4682  140.6112  166.5152 N.am    1  UNL1       -0.2558
     10 C         139.3122  139.8464  167.7961 C.3     1  UNL1        0.1217
     11 C         140.0290  140.6006  168.8766 C.ar    1  UNL1       -0.0046
     12 C         140.2136  140.3255  170.3395 C.ar    1  UNL1       -0.0029
     13 C         140.9973  141.2813  171.1893 C.ar    1  UNL1       -0.0003
     14 C         141.5965  142.5122  170.5761 C.ar    1  UNL1       -0.0003
     15 C         141.4119  142.7873  169.1132 C.ar    1  UNL1       -0.0029
     16 C         140.6281  141.8315  168.2634 C.ar    1  UNL1       -0.0046
     17 C         140.2815  141.8380  166.8040 C.3     1  UNL1        0.1217
     18 C         139.8664  143.6961  160.3853 C.3     1  UNL1        0.0576
     19 C         140.3774  145.1062  160.4070 C.3     1  UNL1        0.0160
     20 C         140.4636  145.5898  158.9896 C.3     1  UNL1        0.0014
     21 C         140.0059  144.4784  158.0921 C.3     1  UNL1        0.0014
     22 C         139.6368  143.3081  158.9547 C.3     1  UNL1        0.0160
@<TRIPOS>BOND
     1     1     2    2
     2     2     3   am
     3     3     4    1
     4     4     5    1
     5     5     6    1
     6     6    18    1
     7    18    19    1
     8    19    20    1
     9    20    21    1
    10    21    22    1
    11     6     7    1
    12     7     8    1
    13     2     9   am
    14     9    10    1
    15    10    11    1
    16    11    12   ar
    17    12    13   ar
    18    13    14   ar
    19    14    15   ar
    20    15    16   ar
    21    16    17    1
    22     8     3    1
    23    17     9    1
    24    22    18    1
    25    16    11   ar
@<TRIPOS>MOLECULE
*****
 22 25 0 0 0
SMALL
GASTEIGER

@<TRIPOS>ATOM
      1 O         137.5458  139.3181  161.9782 O.2     1  UNL1       -0.2523
      2 C         138.4758  140.3580  162.5290 C.2     1  UNL1        0.3077
      3 N         138.9004  140.2986  163.9664 N.am    1  UNL1       -0.2612
      4 C         139.8304  141.3386  164.5174 C.3     1  UNL1        0.1123
      5 C         140.2550  141.2792  165.9548 C.3     1  UNL1        0.0939
      6 N         139.7496  140.1798  166.8413 N.3     1  UNL1       -0.2711
      7 C         138.8196  139.1398  166.2904 C.3     1  UNL1        0.0939
      8 C         138.3950  139.1992  164.8529 C.3     1  UNL1        0.1123
      9 N         138.9812  141.4574  161.6425 N.am    1  UNL1       -0.2558
     10 C         138.6455  141.6457  160.1927 C.3     1  UNL1        0.1217
     11 C         139.3678  142.8662  159.7043 C.ar    1  UNL1       -0.0046
     12 C         139.4145  143.5352  158.3626 C.ar    1  UNL1       -0.0029
     13 C         140.2432  144.7704  158.1689 C.ar    1  UNL1       -0.0003
     14 C         141.0253  145.3365  159.3169 C.ar    1  UNL1       -0.0003
     15 C         140.9787  144.6675  160.6586 C.ar    1  UNL1       -0.0029
     16 C         140.1499  143.4323  160.8523 C.ar    1  UNL1       -0.0046
     17 C         139.9109  142.5617  162.0501 C.3     1  UNL1        0.1217
     18 C         140.1743  140.1204  168.2787 C.3     1  UNL1        0.0576
     19 C         141.5593  139.8327  168.7777 C.3     1  UNL1        0.0160
     20 C         141.5295  139.8727  170.2769 C.3     1  UNL1        0.0014
     21 C         140.1261  140.1852  170.7044 C.3     1  UNL1        0.0014
     22 C         139.2885  140.3383  169.4695 C.3     1  UNL1        0.0160
@<TRIPOS>BOND
     1     1     2    2
     2     2     3   am
     3     3     4    1
     4     4     5    1
     5     5     6    1
     6     6    18    1
     7    18    19    1
     8    19    20    1
     9    20    21    1
    10    21    22    1
    11     6     7    1
    12     7     8    1
    13     2     9   am
    14     9    10    1
    15    10    11    1
    16    11    12   ar
    17    12    13   ar
    18    13    14   ar
    19    14    15   ar
    20    15    16   ar
    21    16    17    1
    22     8     3    1
    23    17     9    1
    24    22    18    1
    25    16    11   ar
@<TRIPOS>MOLECULE
*****
 22 25 0 0 0
SMALL
GASTEIGER

@<TRIPOS>ATOM
      1 O         137.8580  139.5546  161.8303 O.2     1  UNL1       -0.2523
      2 C         139.3116  139.2392  162.0239 C.2     1  UNL1        0.3077
      3 N         140.1513  138.8236  160.8525 N.am    1  UNL1       -0.2612
      4 C         141.6050  138.5082  161.0461 C.3     1  UNL1        0.1123
      5 C         142.4447  138.0926  159.8747 C.3     1  UNL1        0.0939
      6 N         141.8308  137.9925  158.5097 N.3     1  UNL1       -0.2711
      7 C         140.3772  138.3079  158.3162 C.3     1  UNL1        0.0939
      8 C         139.5374  138.7234  159.4876 C.3     1  UNL1        0.1123
      9 N         139.9255  139.3393  163.3888 N.am    1  UNL1       -0.2558
     10 C         139.2152  139.7396  164.6479 C.3     1  UNL1        0.1217
     11 C         140.2082  139.7045  165.7716 C.ar    1  UNL1       -0.0046
     12 C         140.0778  140.0023  167.2359 C.ar    1  UNL1       -0.0029
     13 C         141.2715  139.8780  168.1357 C.ar    1  UNL1       -0.0003
     14 C         142.5956  139.4560  167.5711 C.ar    1  UNL1       -0.0003
     15 C         142.7260  139.1582  166.1068 C.ar    1  UNL1       -0.0029
     16 C         141.5323  139.2825  165.2071 C.ar    1  UNL1       -0.0046
     17 C         141.3576  139.0568  163.7344 C.3     1  UNL1        0.1217
     18 C         142.6706  137.5769  157.3383 C.3     1  UNL1        0.0576
     19 C         143.3444  138.4986  156.3655 C.3     1  UNL1        0.0160
     20 C         144.0743  137.6580  155.3600 C.3     1  UNL1        0.0014
     21 C         143.8515  136.2169  155.7115 C.3     1  UNL1        0.0014
     22 C         142.9840  136.1668  156.9342 C.3     1  UNL1        0.0160
@<TRIPOS>BOND
     1     1     2    2
     2     2     3   am
     3     3     4    1
     4     4     5    1
     5     5     6    1
     6     6    18    1
     7    18    19    1
     8    19    20    1
     9    20    21    1
    10    21    22    1
    11     6     7    1
    12     7     8    1
    13     2     9   am
    14     9    10    1
    15    10    11    1
    16    11    12   ar
    17    12    13   ar
    18    13    14   ar
    19    14    15   ar
    20    15    16   ar
    21    16    17    1
    22     8     3    1
    23    17     9    1
    24    22    18    1
    25    16    11   ar
@<TRIPOS>MOLECULE
*****
 22 25 0 0 0
SMALL
GASTEIGER

@<TRIPOS>ATOM
      1 O         139.8079  144.5930  160.6325 O.2     1  UNL1       -0.2523
      2 C         141.0223  143.8783  161.1464 C.2     1  UNL1        0.3077
      3 N         142.1368  143.5228  160.2075 N.am    1  UNL1       -0.2612
      4 C         143.3513  142.8080  160.7215 C.3     1  UNL1        0.1123
      5 C         144.4657  142.4526  159.7826 C.3     1  UNL1        0.0939
      6 N         144.3657  142.8118  158.3297 N.3     1  UNL1       -0.2711
      7 C         143.1513  143.5266  157.8157 C.3     1  UNL1        0.0939
      8 C         142.0368  143.8821  158.7546 C.3     1  UNL1        0.1123
      9 N         141.1223  143.5190  162.5993 N.am    1  UNL1       -0.2558
     10 C         140.0933  143.8077  163.6518 C.3     1  UNL1        0.1217
     11 C         140.6039  143.2751  164.9578 C.ar    1  UNL1       -0.0046
     12 C         140.0182  143.2729  166.3387 C.ar    1  UNL1       -0.0029
     13 C         140.7771  142.6528  167.4743 C.ar    1  UNL1       -0.0003
     14 C         142.1217  142.0349  167.2289 C.ar    1  UNL1       -0.0003
     15 C         142.7074  142.0371  165.8480 C.ar    1  UNL1       -0.0029
     16 C         141.9485  142.6572  164.7125 C.ar    1  UNL1       -0.0046
     17 C         142.2689  142.8079  163.2549 C.3     1  UNL1        0.1217
     18 C         145.4803  142.4563  157.3907 C.3     1  UNL1        0.0576
     19 C         146.9020  142.9234  157.4931 C.3     1  UNL1        0.0160
     20 C         147.6692  142.3271  156.3502 C.3     1  UNL1        0.0014
     21 C         146.7215  141.4915  155.5417 C.3     1  UNL1        0.0014
     22 C         145.3687  141.5714  156.1847 C.3     1  UNL1        0.0160
@<TRIPOS>BOND
     1     1     2    2
     2     2     3   am
     3     3     4    1
     4     4     5    1
     5     5     6    1
     6     6    18    1
     7    18    19    1
     8    19    20    1
     9    20    21    1
    10    21    22    1
    11     6     7    1
    12     7     8    1
    13     2     9   am
    14     9    10    1
    15    10    11    1
    16    11    12   ar
    17    12    13   ar
    18    13    14   ar
    19    14    15   ar
    20    15    16   ar
    21    16    17    1
    22     8     3    1
    23    17     9    1
    24    22    18    1
    25    16    11   ar
@<TRIPOS>MOLECULE
*****
 22 25 0 0 0
SMALL
GASTEIGER

@<TRIPOS>ATOM
      1 O         141.6962  145.1828  163.9445 O.2     1  UNL1       -0.2523
      2 C         140.8257  144.0666  163.4484 C.2     1  UNL1        0.3077
      3 N         140.4225  144.0149  162.0046 N.am    1  UNL1       -0.2612
      4 C         139.5519  142.8986  161.5085 C.3     1  UNL1        0.1123
      5 C         139.1487  142.8469  160.0647 C.3     1  UNL1        0.0939
      6 N         139.6161  143.9114  159.1168 N.3     1  UNL1       -0.2711
      7 C         140.4867  145.0276  159.6129 C.3     1  UNL1        0.0939
      8 C         140.8899  145.0794  161.0568 C.3     1  UNL1        0.1123
      9 N         140.3582  143.0021  164.3963 N.am    1  UNL1       -0.2558
     10 C         140.6785  142.9220  165.8595 C.3     1  UNL1        0.1217
     11 C         140.0067  141.7012  166.4149 C.ar    1  UNL1       -0.0046
     12 C         139.9696  141.1165  167.7957 C.ar    1  UNL1       -0.0029
     13 C         139.1971  139.8575  168.0565 C.ar    1  UNL1       -0.0003
     14 C         138.4617  139.1831  166.9365 C.ar    1  UNL1       -0.0003
     15 C         138.4988  139.7678  165.5557 C.ar    1  UNL1       -0.0029
     16 C         139.2712  141.0268  165.2948 C.ar    1  UNL1       -0.0046
     17 C         139.4885  141.8309  164.0473 C.3     1  UNL1        0.1217
     18 C         139.2129  143.8596  157.6729 C.3     1  UNL1        0.0576
     19 C         138.3075  142.8409  157.0464 C.3     1  UNL1        0.0160
     20 C         138.1793  143.1691  155.5883 C.3     1  UNL1        0.0014
     21 C         139.0055  144.3906  155.3138 C.3     1  UNL1        0.0014
     22 C         139.6442  144.8174  156.6022 C.3     1  UNL1        0.0160
@<TRIPOS>BOND
     1     1     2    2
     2     2     3   am
     3     3     4    1
     4     4     5    1
     5     5     6    1
     6     6    18    1
     7    18    19    1
     8    19    20    1
     9    20    21    1
    10    21    22    1
    11     6     7    1
    12     7     8    1
    13     2     9   am
    14     9    10    1
    15    10    11    1
    16    11    12   ar
    17    12    13   ar
    18    13    14   ar
    19    14    15   ar
    20    15    16   ar
    21    16    17    1
    22     8     3    1
    23    17     9    1
    24    22    18    1
    25    16    11   ar
