@<TRIPOS>MOLECULE
*****
 35 39 0 0 0
SMALL
GASTEIGER

@<TRIPOS>ATOM
      1 O         142.8423  144.2216  157.2942 O.2     1  UNL1       -0.2718
      2 C         142.9410  143.5341  158.6237 C.2     1  UNL1        0.2592
      3 C         142.1008  144.0026  159.7746 C.3     1  UNL1        0.2208
      4 O         142.1995  143.3151  161.1041 O.3     1  UNL1       -0.3478
      5 C         143.1384  142.1590  161.2828 C.3     1  UNL1        0.1146
      6 C         144.0773  141.0030  161.4614 C.3     1  UNL1        0.0463
      7 C         144.1760  140.3155  162.7909 C.3     1  UNL1        0.0746
      8 N         143.3358  140.7840  163.9417 N.3     1  UNL1       -0.2722
      9 C         142.3969  141.9401  163.7631 C.3     1  UNL1        0.0746
     10 C         142.2982  142.6276  162.4336 C.3     1  UNL1        0.0463
     11 C         143.9786  141.6904  160.1319 C.3     1  UNL1        0.1254
     12 N         143.8799  142.3780  158.8024 N.am    1  UNL1       -0.2542
     13 C         144.7201  141.9094  157.6515 C.ar    1  UNL1        0.0540
     14 C         144.2271  140.8057  156.7634 C.ar    1  UNL1        0.0149
     15 C         145.0673  140.3372  155.6125 C.ar    1  UNL1        0.0013
     16 C         146.4005  140.9723  155.3498 C.ar    1  UNL1        0.0001
     17 C         146.8936  142.0761  156.2379 C.ar    1  UNL1        0.0013
     18 C         146.0534  142.5446  157.3887 C.ar    1  UNL1        0.0149
     19 C         141.1618  145.1588  159.5959 C.3     1  UNL1        0.1814
     20 O         139.8250  145.1512  160.2762 O.3     1  UNL1       -0.3459
     21 C         139.7164  145.5397  161.7209 C.3     1  UNL1        0.1687
     22 C         139.1550  144.5699  162.7182 C.ar    1  UNL1        0.0073
     23 C         139.4831  144.7174  164.1744 C.ar    1  UNL1       -0.0019
     24 C         138.9217  143.7477  165.1716 C.ar    1  UNL1       -0.0002
     25 C         138.0323  142.6305  164.7126 C.ar    1  UNL1       -0.0000
     26 C         137.7043  142.4830  163.2564 C.ar    1  UNL1       -0.0002
     27 C         138.2656  143.4527  162.2592 C.ar    1  UNL1       -0.0019
     28 C         143.4345  140.0965  165.2713 C.3     1  UNL1        0.0768
     29 C         142.6754  138.8263  165.5170 C.3     1  UNL1        0.0437
     30 C         141.1892  138.8674  165.7161 C.ar    1  UNL1       -0.0208
     31 C         140.2986  137.9760  164.9025 C.ar    1  UNL1       -0.0042
     32 C         138.8125  138.0171  165.1016 C.ar    1  UNL1       -0.0003
     33 C         138.2170  138.9495  166.1145 C.ar    1  UNL1       -0.0000
     34 C         139.1076  139.8409  166.9282 C.ar    1  UNL1       -0.0003
     35 C         140.5937  139.7998  166.7290 C.ar    1  UNL1       -0.0042
@<TRIPOS>BOND
     1     1     2    2
     2     2     3    1
     3     3    19    1
     4    19    20    1
     5    20    21    1
     6    21    22    1
     7    22    23   ar
     8    23    24   ar
     9    24    25   ar
    10    25    26   ar
    11    26    27   ar
    12     3     4    1
    13     4     5    1
    14     5     6    1
    15     6     7    1
    16     7     8    1
    17     8    28    1
    18    28    29    1
    19    29    30    1
    20    30    31   ar
    21    31    32   ar
    22    32    33   ar
    23    33    34   ar
    24    34    35   ar
    25     8     9    1
    26     9    10    1
    27     5    11    1
    28    11    12    1
    29    12    13    1
    30    13    14   ar
    31    14    15   ar
    32    15    16   ar
    33    16    17   ar
    34    17    18   ar
    35    12     2   am
    36    18    13   ar
    37    27    22   ar
    38    10     5    1
    39    35    30   ar
@<TRIPOS>MOLECULE
*****
 35 39 0 0 0
SMALL
GASTEIGER

@<TRIPOS>ATOM
      1 O         139.8054  139.8161  167.3586 O.2     1  UNL1       -0.2718
      2 C         139.8980  140.7746  166.2085 C.2     1  UNL1        0.2592
      3 C         139.2757  140.4254  164.8891 C.3     1  UNL1        0.2208
      4 O         139.3684  141.3838  163.7390 O.3     1  UNL1       -0.3478
      5 C         140.0833  142.6917  163.9083 C.3     1  UNL1        0.1146
      6 C         140.7982  143.9994  164.0776 C.3     1  UNL1        0.0463
      7 C         140.8908  144.9579  162.9275 C.3     1  UNL1        0.0746
      8 N         140.2685  144.6086  161.6081 N.3     1  UNL1       -0.2722
      9 C         139.5536  143.3009  161.4388 C.3     1  UNL1        0.0746
     10 C         139.4610  142.3424  162.5889 C.3     1  UNL1        0.0463
     11 C         140.7056  143.0409  165.2277 C.3     1  UNL1        0.1254
     12 N         140.6129  142.0824  166.3778 N.am    1  UNL1       -0.2542
     13 C         141.2352  142.4316  167.6972 C.ar    1  UNL1        0.0540
     14 C         142.6518  142.0331  167.9872 C.ar    1  UNL1        0.0149
     15 C         143.2741  142.3823  169.3066 C.ar    1  UNL1        0.0013
     16 C         142.4797  143.1302  170.3360 C.ar    1  UNL1        0.0001
     17 C         141.0630  143.5288  170.0460 C.ar    1  UNL1        0.0013
     18 C         140.4407  143.1795  168.7266 C.ar    1  UNL1        0.0149
     19 C         138.5608  139.1176  164.7198 C.3     1  UNL1        0.1814
     20 O         139.3338  137.8322  164.7398 O.3     1  UNL1       -0.3459
     21 C         140.4398  137.6067  163.7520 C.3     1  UNL1        0.1687
     22 C         141.8181  138.1249  164.0381 C.ar    1  UNL1        0.0073
     23 C         142.6958  138.5834  162.9115 C.ar    1  UNL1       -0.0019
     24 C         144.0741  139.1016  163.1976 C.ar    1  UNL1       -0.0002
     25 C         144.5746  139.1613  164.6103 C.ar    1  UNL1       -0.0000
     26 C         143.6969  138.7028  165.7369 C.ar    1  UNL1       -0.0002
     27 C         142.3186  138.1847  165.4508 C.ar    1  UNL1       -0.0019
     28 C         140.3612  145.5671  160.4580 C.3     1  UNL1        0.0768
     29 C         140.9916  145.1324  159.1683 C.3     1  UNL1        0.0437
     30 C         140.1871  145.1344  157.9021 C.ar    1  UNL1       -0.0208
     31 C         139.5508  143.8662  157.4159 C.ar    1  UNL1       -0.0042
     32 C         138.7464  143.8682  156.1498 C.ar    1  UNL1       -0.0003
     33 C         138.5784  145.1386  155.3700 C.ar    1  UNL1       -0.0000
     34 C         139.2148  146.4068  155.8563 C.ar    1  UNL1       -0.0003
     35 C         140.0192  146.4047  157.1224 C.ar    1  UNL1       -0.0042
@<TRIPOS>BOND
     1     1     2    2
     2     2     3    1
     3     3    19    1
     4    19    20    1
     5    20    21    1
     6    21    22    1
     7    22    23   ar
     8    23    24   ar
     9    24    25   ar
    10    25    26   ar
    11    26    27   ar
    12     3     4    1
    13     4     5    1
    14     5     6    1
    15     6     7    1
    16     7     8    1
    17     8    28    1
    18    28    29    1
    19    29    30    1
    20    30    31   ar
    21    31    32   ar
    22    32    33   ar
    23    33    34   ar
    24    34    35   ar
    25     8     9    1
    26     9    10    1
    27     5    11    1
    28    11    12    1
    29    12    13    1
    30    13    14   ar
    31    14    15   ar
    32    15    16   ar
    33    16    17   ar
    34    17    18   ar
    35    12     2   am
    36    18    13   ar
    37    27    22   ar
    38    10     5    1
    39    35    30   ar
@<TRIPOS>MOLECULE
*****
 35 39 0 0 0
SMALL
GASTEIGER

@<TRIPOS>ATOM
      1 O         142.9078  144.9314  157.8312 O.2     1  UNL1       -0.2718
      2 C         142.3804  143.7597  158.6054 C.2     1  UNL1        0.2592
      3 C         141.2836  143.9567  159.6095 C.3     1  UNL1        0.2208
      4 O         140.7562  142.7852  160.3836 O.3     1  UNL1       -0.3478
      5 C         141.3257  141.4166  160.1538 C.3     1  UNL1        0.1146
      6 C         141.8952  140.0481  159.9239 C.3     1  UNL1        0.0463
      7 C         141.3679  138.8766  160.6981 C.3     1  UNL1        0.0746
      8 N         140.2711  139.0736  161.7021 N.3     1  UNL1       -0.2722
      9 C         139.7016  140.4420  161.9320 C.3     1  UNL1        0.0746
     10 C         140.2289  141.6136  161.1578 C.3     1  UNL1        0.0463
     11 C         142.4226  141.2197  159.1497 C.3     1  UNL1        0.1254
     12 N         142.9499  142.3913  158.3755 N.am    1  UNL1       -0.2542
     13 C         144.0467  142.1943  157.3714 C.ar    1  UNL1        0.0540
     14 C         143.7190  141.7243  155.9852 C.ar    1  UNL1        0.0149
     15 C         144.8159  141.5274  154.9811 C.ar    1  UNL1        0.0013
     16 C         146.2404  141.8004  155.3633 C.ar    1  UNL1        0.0001
     17 C         146.5682  142.2704  156.7496 C.ar    1  UNL1        0.0013
     18 C         145.4714  142.4674  157.7536 C.ar    1  UNL1        0.0149
     19 C         140.7141  145.3253  159.8393 C.3     1  UNL1        0.1814
     20 O         139.4749  145.4925  160.6679 O.3     1  UNL1       -0.3459
     21 C         139.5859  145.7063  162.1484 C.3     1  UNL1        0.1687
     22 C         139.2900  144.5795  163.0932 C.ar    1  UNL1        0.0073
     23 C         137.9309  143.9448  163.1013 C.ar    1  UNL1       -0.0019
     24 C         137.6350  142.8180  164.0461 C.ar    1  UNL1       -0.0002
     25 C         138.6981  142.3258  164.9829 C.ar    1  UNL1       -0.0000
     26 C         140.0571  142.9605  164.9748 C.ar    1  UNL1       -0.0002
     27 C         140.3531  144.0873  164.0300 C.ar    1  UNL1       -0.0019
     28 C         139.7437  137.9019  162.4763 C.3     1  UNL1        0.0768
     29 C         140.3605  137.5343  163.7933 C.3     1  UNL1        0.0437
     30 C         139.9588  138.2657  165.0398 C.ar    1  UNL1       -0.0208
     31 C         138.5551  138.1528  165.5562 C.ar    1  UNL1       -0.0042
     32 C         138.1534  138.8842  166.8027 C.ar    1  UNL1       -0.0003
     33 C         139.1555  139.7284  167.5328 C.ar    1  UNL1       -0.0000
     34 C         140.5593  139.8414  167.0164 C.ar    1  UNL1       -0.0003
     35 C         140.9609  139.1100  165.7699 C.ar    1  UNL1       -0.0042
@<TRIPOS>BOND
     1     1     2    2
     2     2     3    1
     3     3    19    1
     4    19    20    1
     5    20    21    1
     6    21    22    1
     7    22    23   ar
     8    23    24   ar
     9    24    25   ar
    10    25    26   ar
    11    26    27   ar
    12     3     4    1
    13     4     5    1
    14     5     6    1
    15     6     7    1
    16     7     8    1
    17     8    28    1
    18    28    29    1
    19    29    30    1
    20    30    31   ar
    21    31    32   ar
    22    32    33   ar
    23    33    34   ar
    24    34    35   ar
    25     8     9    1
    26     9    10    1
    27     5    11    1
    28    11    12    1
    29    12    13    1
    30    13    14   ar
    31    14    15   ar
    32    15    16   ar
    33    16    17   ar
    34    17    18   ar
    35    12     2   am
    36    18    13   ar
    37    27    22   ar
    38    10     5    1
    39    35    30   ar
@<TRIPOS>MOLECULE
*****
 35 39 0 0 0
SMALL
GASTEIGER

@<TRIPOS>ATOM
      1 O         138.8392  143.4621  156.9972 O.2     1  UNL1       -0.2718
      2 C         138.7995  142.6268  158.2425 C.2     1  UNL1        0.2592
      3 C         139.3773  143.1581  159.5207 C.3     1  UNL1        0.2208
      4 O         139.3377  142.3229  160.7660 O.3     1  UNL1       -0.3478
      5 C         138.7202  140.9562  160.7331 C.3     1  UNL1        0.1146
      6 C         138.1027  139.5896  160.7001 C.3     1  UNL1        0.0463
      7 C         138.0630  138.7544  161.9454 C.3     1  UNL1        0.0746
      8 N         138.6408  139.2857  163.2236 N.3     1  UNL1       -0.2722
      9 C         139.2583  140.6523  163.2565 C.3     1  UNL1        0.0746
     10 C         139.2980  141.4875  162.0113 C.3     1  UNL1        0.0463
     11 C         138.1423  140.4249  159.4549 C.3     1  UNL1        0.1254
     12 N         138.1820  141.2602  158.2095 N.am    1  UNL1       -0.2542
     13 C         137.6042  140.7288  156.9313 C.ar    1  UNL1        0.0540
     14 C         138.4516  139.8990  156.0131 C.ar    1  UNL1        0.0149
     15 C         137.8738  139.3677  154.7349 C.ar    1  UNL1        0.0013
     16 C         136.4486  139.6662  154.3749 C.ar    1  UNL1        0.0001
     17 C         135.6011  140.4960  155.2932 C.ar    1  UNL1        0.0013
     18 C         136.1789  141.0273  156.5714 C.ar    1  UNL1        0.0149
     19 C         139.9948  144.5248  159.5536 C.3     1  UNL1        0.1814
     20 O         139.7013  145.4531  160.6946 O.3     1  UNL1       -0.3459
     21 C         140.6579  145.5528  161.8456 C.3     1  UNL1        0.1687
     22 C         140.3758  144.8161  163.1213 C.ar    1  UNL1        0.0073
     23 C         138.9949  144.8319  163.7069 C.ar    1  UNL1       -0.0019
     24 C         138.7128  144.0952  164.9827 C.ar    1  UNL1       -0.0002
     25 C         139.8115  143.3425  165.6729 C.ar    1  UNL1       -0.0000
     26 C         141.1924  143.3267  165.0873 C.ar    1  UNL1       -0.0002
     27 C         141.4745  144.0635  163.8115 C.ar    1  UNL1       -0.0019
     28 C         138.6011  138.4504  164.4689 C.3     1  UNL1        0.0768
     29 C         138.4627  139.1088  165.8096 C.3     1  UNL1        0.0437
     30 C         139.6869  139.5120  166.5771 C.ar    1  UNL1       -0.0208
     31 C         139.5483  140.1777  167.9141 C.ar    1  UNL1       -0.0042
     32 C         140.7724  140.5809  168.6816 C.ar    1  UNL1       -0.0003
     33 C         142.1350  140.3183  168.1121 C.ar    1  UNL1       -0.0000
     34 C         142.2735  139.6525  166.7751 C.ar    1  UNL1       -0.0003
     35 C         141.0495  139.2494  166.0076 C.ar    1  UNL1       -0.0042
@<TRIPOS>BOND
     1     1     2    2
     2     2     3    1
     3     3    19    1
     4    19    20    1
     5    20    21    1
     6    21    22    1
     7    22    23   ar
     8    23    24   ar
     9    24    25   ar
    10    25    26   ar
    11    26    27   ar
    12     3     4    1
    13     4     5    1
    14     5     6    1
    15     6     7    1
    16     7     8    1
    17     8    28    1
    18    28    29    1
    19    29    30    1
    20    30    31   ar
    21    31    32   ar
    22    32    33   ar
    23    33    34   ar
    24    34    35   ar
    25     8     9    1
    26     9    10    1
    27     5    11    1
    28    11    12    1
    29    12    13    1
    30    13    14   ar
    31    14    15   ar
    32    15    16   ar
    33    16    17   ar
    34    17    18   ar
    35    12     2   am
    36    18    13   ar
    37    27    22   ar
    38    10     5    1
    39    35    30   ar
@<TRIPOS>MOLECULE
*****
 35 39 0 0 0
SMALL
GASTEIGER

@<TRIPOS>ATOM
      1 O         139.7392  139.9019  167.8827 O.2     1  UNL1       -0.2718
      2 C         139.8557  140.7710  166.6656 C.2     1  UNL1        0.2592
      3 C         139.1366  140.3951  165.4041 C.3     1  UNL1        0.2208
      4 O         139.2531  141.2641  164.1870 O.3     1  UNL1       -0.3478
      5 C         140.0889  142.5090  164.2315 C.3     1  UNL1        0.1146
      6 C         140.9245  143.7538  164.2761 C.3     1  UNL1        0.0463
      7 C         141.0411  144.6228  163.0590 C.3     1  UNL1        0.0746
      8 N         140.3219  144.2470  161.7974 N.3     1  UNL1       -0.2722
      9 C         139.4863  143.0021  161.7529 C.3     1  UNL1        0.0746
     10 C         139.3697  142.1332  162.9699 C.3     1  UNL1        0.0463
     11 C         140.8080  142.8848  165.4931 C.3     1  UNL1        0.1254
     12 N         140.6914  142.0158  166.7102 N.am    1  UNL1       -0.2542
     13 C         141.4105  142.3916  167.9718 C.ar    1  UNL1        0.0540
     14 C         142.8328  141.9632  168.1804 C.ar    1  UNL1        0.0149
     15 C         143.5520  142.3391  169.4420 C.ar    1  UNL1        0.0013
     16 C         142.8488  143.1433  170.4949 C.ar    1  UNL1        0.0001
     17 C         141.4265  143.5717  170.2864 C.ar    1  UNL1        0.0013
     18 C         140.7073  143.1958  169.0248 C.ar    1  UNL1        0.0149
     19 C         138.3009  139.1502  165.3596 C.3     1  UNL1        0.1814
     20 O         138.7234  137.9935  164.5031 O.3     1  UNL1       -0.3459
     21 C         140.0234  137.2958  164.7732 C.3     1  UNL1        0.1687
     22 C         141.2915  137.8074  164.1565 C.ar    1  UNL1        0.0073
     23 C         141.5412  137.6191  162.6895 C.ar    1  UNL1       -0.0019
     24 C         142.8092  138.1307  162.0728 C.ar    1  UNL1       -0.0002
     25 C         143.8276  138.8305  162.9231 C.ar    1  UNL1       -0.0000
     26 C         143.5780  139.0187  164.3902 C.ar    1  UNL1       -0.0002
     27 C         142.3099  138.5071  165.0069 C.ar    1  UNL1       -0.0019
     28 C         140.4385  145.1160  160.5803 C.3     1  UNL1        0.0768
     29 C         141.4306  144.7757  159.5080 C.3     1  UNL1        0.0437
     30 C         142.1229  143.4450  159.5216 C.ar    1  UNL1       -0.0208
     31 C         141.6240  142.3311  158.6497 C.ar    1  UNL1       -0.0042
     32 C         142.3163  141.0005  158.6634 C.ar    1  UNL1       -0.0003
     33 C         143.5075  140.7839  159.5489 C.ar    1  UNL1       -0.0000
     34 C         144.0063  141.8978  160.4209 C.ar    1  UNL1       -0.0003
     35 C         143.3140  143.2284  160.4072 C.ar    1  UNL1       -0.0042
@<TRIPOS>BOND
     1     1     2    2
     2     2     3    1
     3     3    19    1
     4    19    20    1
     5    20    21    1
     6    21    22    1
     7    22    23   ar
     8    23    24   ar
     9    24    25   ar
    10    25    26   ar
    11    26    27   ar
    12     3     4    1
    13     4     5    1
    14     5     6    1
    15     6     7    1
    16     7     8    1
    17     8    28    1
    18    28    29    1
    19    29    30    1
    20    30    31   ar
    21    31    32   ar
    22    32    33   ar
    23    33    34   ar
    24    34    35   ar
    25     8     9    1
    26     9    10    1
    27     5    11    1
    28    11    12    1
    29    12    13    1
    30    13    14   ar
    31    14    15   ar
    32    15    16   ar
    33    16    17   ar
    34    17    18   ar
    35    12     2   am
    36    18    13   ar
    37    27    22   ar
    38    10     5    1
    39    35    30   ar
@<TRIPOS>MOLECULE
*****
 35 39 0 0 0
SMALL
GASTEIGER

@<TRIPOS>ATOM
      1 O         140.7698  141.9025  162.1989 O.2     1  UNL1       -0.2718
      2 C         140.9586  140.9049  161.0947 C.2     1  UNL1        0.2592
      3 C         139.8516  140.6529  160.1143 C.3     1  UNL1        0.2208
      4 O         140.0404  139.6553  159.0102 O.3     1  UNL1       -0.3478
      5 C         141.3361  138.9096  158.8864 C.3     1  UNL1        0.1146
      6 C         142.6317  138.1641  158.7627 C.3     1  UNL1        0.0463
      7 C         142.8205  137.1665  157.6586 C.3     1  UNL1        0.0746
      8 N         141.7135  136.9145  156.6781 N.3     1  UNL1       -0.2722
      9 C         140.4179  137.6601  156.8018 C.3     1  UNL1        0.0746
     10 C         140.2292  138.6577  157.9060 C.3     1  UNL1        0.0463
     11 C         142.4430  139.1616  159.8668 C.3     1  UNL1        0.1254
     12 N         142.2542  140.1593  160.9710 N.am    1  UNL1       -0.2542
     13 C         143.3611  140.4113  161.9515 C.ar    1  UNL1        0.0540
     14 C         143.5947  139.4529  163.0815 C.ar    1  UNL1        0.0149
     15 C         144.7017  139.7049  164.0619 C.ar    1  UNL1        0.0013
     16 C         145.5750  140.9152  163.9123 C.ar    1  UNL1        0.0001
     17 C         145.3413  141.8737  162.7823 C.ar    1  UNL1        0.0013
     18 C         144.2344  141.6217  161.8018 C.ar    1  UNL1        0.0149
     19 C         138.5559  141.3985  160.2381 C.3     1  UNL1        0.1814
     20 O         137.4707  140.8733  161.1305 O.3     1  UNL1       -0.3459
     21 C         137.5402  141.1035  162.6111 C.3     1  UNL1        0.1687
     22 C         138.0389  140.0166  163.5165 C.ar    1  UNL1        0.0073
     23 C         138.0848  140.2378  164.9994 C.ar    1  UNL1       -0.0019
     24 C         138.5836  139.1509  165.9048 C.ar    1  UNL1       -0.0002
     25 C         139.0364  137.8427  165.3274 C.ar    1  UNL1       -0.0000
     26 C         138.9905  137.6214  163.8445 C.ar    1  UNL1       -0.0002
     27 C         138.4918  138.7084  162.9391 C.ar    1  UNL1       -0.0019
     28 C         141.9023  135.9169  155.5739 C.3     1  UNL1        0.0768
     29 C         141.6759  134.4573  155.8351 C.3     1  UNL1        0.0437
     30 C         142.8339  133.5687  156.1811 C.ar    1  UNL1       -0.0208
     31 C         143.2868  132.5160  155.2133 C.ar    1  UNL1       -0.0042
     32 C         144.4447  131.6276  155.5593 C.ar    1  UNL1       -0.0003
     33 C         145.1497  131.7918  156.8731 C.ar    1  UNL1       -0.0000
     34 C         144.6968  132.8445  157.8408 C.ar    1  UNL1       -0.0003
     35 C         143.5389  133.7329  157.4948 C.ar    1  UNL1       -0.0042
@<TRIPOS>BOND
     1     1     2    2
     2     2     3    1
     3     3    19    1
     4    19    20    1
     5    20    21    1
     6    21    22    1
     7    22    23   ar
     8    23    24   ar
     9    24    25   ar
    10    25    26   ar
    11    26    27   ar
    12     3     4    1
    13     4     5    1
    14     5     6    1
    15     6     7    1
    16     7     8    1
    17     8    28    1
    18    28    29    1
    19    29    30    1
    20    30    31   ar
    21    31    32   ar
    22    32    33   ar
    23    33    34   ar
    24    34    35   ar
    25     8     9    1
    26     9    10    1
    27     5    11    1
    28    11    12    1
    29    12    13    1
    30    13    14   ar
    31    14    15   ar
    32    15    16   ar
    33    16    17   ar
    34    17    18   ar
    35    12     2   am
    36    18    13   ar
    37    27    22   ar
    38    10     5    1
    39    35    30   ar
@<TRIPOS>MOLECULE
*****
 35 39 0 0 0
SMALL
GASTEIGER

@<TRIPOS>ATOM
      1 O         142.0048  141.8537  163.0338 O.2     1  UNL1       -0.2718
      2 C         141.8341  142.5970  161.7421 C.2     1  UNL1        0.2592
      3 C         142.7982  142.3732  160.6150 C.3     1  UNL1        0.2208
      4 O         142.6276  143.1164  159.3233 O.3     1  UNL1       -0.3478
      5 C         141.4928  144.0836  159.1588 C.3     1  UNL1        0.1146
      6 C         140.3581  145.0506  158.9942 C.3     1  UNL1        0.0463
      7 C         140.1874  145.7939  157.7026 C.3     1  UNL1        0.0746
      8 N         141.1515  145.5701  156.5755 N.3     1  UNL1       -0.2722
      9 C         142.2863  144.6030  156.7400 C.3     1  UNL1        0.0746
     10 C         142.4569  143.8597  158.0316 C.3     1  UNL1        0.0463
     11 C         140.5287  144.3074  160.2859 C.3     1  UNL1        0.1254
     12 N         140.6994  143.5640  161.5776 N.am    1  UNL1       -0.2542
     13 C         139.7353  143.7879  162.7047 C.ar    1  UNL1        0.0540
     14 C         138.3672  143.1748  162.6544 C.ar    1  UNL1        0.0149
     15 C         137.4031  143.3986  163.7815 C.ar    1  UNL1        0.0013
     16 C         137.8071  144.2355  164.9590 C.ar    1  UNL1        0.0001
     17 C         139.1752  144.8486  165.0094 C.ar    1  UNL1        0.0013
     18 C         140.1393  144.6248  163.8822 C.ar    1  UNL1        0.0149
     19 C         143.9330  141.4060  160.7796 C.3     1  UNL1        0.1814
     20 O         143.8279  140.0225  160.2097 O.3     1  UNL1       -0.3459
     21 C         144.1954  138.8354  161.0497 C.3     1  UNL1        0.1687
     22 C         143.6352  138.6939  162.4340 C.ar    1  UNL1        0.0073
     23 C         144.3993  139.2254  163.6102 C.ar    1  UNL1       -0.0019
     24 C         143.8392  139.0839  164.9945 C.ar    1  UNL1       -0.0002
     25 C         142.5149  138.4108  165.2025 C.ar    1  UNL1       -0.0000
     26 C         141.7508  137.8793  164.0263 C.ar    1  UNL1       -0.0002
     27 C         142.3110  138.0209  162.6420 C.ar    1  UNL1       -0.0019
     28 C         140.9809  146.3134  155.2838 C.3     1  UNL1        0.0768
     29 C         139.6308  146.8368  154.8924 C.3     1  UNL1        0.0437
     30 C         139.3762  148.3150  154.8730 C.ar    1  UNL1       -0.0208
     31 C         139.8592  149.1441  153.7202 C.ar    1  UNL1       -0.0042
     32 C         139.6046  150.6222  153.7008 C.ar    1  UNL1       -0.0003
     33 C         138.8669  151.2711  154.8343 C.ar    1  UNL1       -0.0000
     34 C         138.3839  150.4419  155.9871 C.ar    1  UNL1       -0.0003
     35 C         138.6385  148.9639  156.0065 C.ar    1  UNL1       -0.0042
@<TRIPOS>BOND
     1     1     2    2
     2     2     3    1
     3     3    19    1
     4    19    20    1
     5    20    21    1
     6    21    22    1
     7    22    23   ar
     8    23    24   ar
     9    24    25   ar
    10    25    26   ar
    11    26    27   ar
    12     3     4    1
    13     4     5    1
    14     5     6    1
    15     6     7    1
    16     7     8    1
    17     8    28    1
    18    28    29    1
    19    29    30    1
    20    30    31   ar
    21    31    32   ar
    22    32    33   ar
    23    33    34   ar
    24    34    35   ar
    25     8     9    1
    26     9    10    1
    27     5    11    1
    28    11    12    1
    29    12    13    1
    30    13    14   ar
    31    14    15   ar
    32    15    16   ar
    33    16    17   ar
    34    17    18   ar
    35    12     2   am
    36    18    13   ar
    37    27    22   ar
    38    10     5    1
    39    35    30   ar
@<TRIPOS>MOLECULE
*****
 35 39 0 0 0
SMALL
GASTEIGER

@<TRIPOS>ATOM
      1 O         138.5992  143.6160  156.6086 O.2     1  UNL1       -0.2718
      2 C         138.6819  142.7527  157.8325 C.2     1  UNL1        0.2592
      3 C         139.3745  143.2598  159.0626 C.3     1  UNL1        0.2208
      4 O         139.4571  142.3966  160.2865 O.3     1  UNL1       -0.3478
      5 C         138.8472  141.0261  160.2804 C.3     1  UNL1        0.1146
      6 C         138.2373  139.6558  160.2742 C.3     1  UNL1        0.0463
      7 C         138.3200  138.7926  161.4981 C.3     1  UNL1        0.0746
      8 N         139.0126  139.2997  162.7282 N.3     1  UNL1       -0.2722
      9 C         139.6225  140.6701  162.7344 C.3     1  UNL1        0.0746
     10 C         139.5398  141.5333  161.5105 C.3     1  UNL1        0.0463
     11 C         138.1547  140.5190  159.0503 C.3     1  UNL1        0.1254
     12 N         138.0720  141.3823  157.8263 N.am    1  UNL1       -0.2542
     13 C         137.3794  140.8751  156.5962 C.ar    1  UNL1        0.0540
     14 C         138.1785  140.2632  155.4841 C.ar    1  UNL1        0.0149
     15 C         137.4860  139.7561  154.2540 C.ar    1  UNL1        0.0013
     16 C         135.9943  139.8608  154.1360 C.ar    1  UNL1        0.0001
     17 C         135.1951  140.4728  155.2482 C.ar    1  UNL1        0.0013
     18 C         135.8877  140.9800  156.4783 C.ar    1  UNL1        0.0149
     19 C         139.9844  144.6303  159.0688 C.3     1  UNL1        0.1814
     20 O         140.8023  145.0818  160.2422 O.3     1  UNL1       -0.3459
     21 C         140.1465  145.8098  161.3780 C.3     1  UNL1        0.1687
     22 C         139.7541  145.0649  162.6194 C.ar    1  UNL1        0.0073
     23 C         138.3174  144.7036  162.8547 C.ar    1  UNL1       -0.0019
     24 C         137.9251  143.9586  164.0961 C.ar    1  UNL1       -0.0002
     25 C         138.9693  143.5750  165.1022 C.ar    1  UNL1       -0.0000
     26 C         140.4060  143.9363  164.8669 C.ar    1  UNL1       -0.0002
     27 C         140.7984  144.6812  163.6255 C.ar    1  UNL1       -0.0019
     28 C         139.0952  138.4364  163.9521 C.3     1  UNL1        0.0768
     29 C         140.2632  137.5147  164.1423 C.3     1  UNL1        0.0437
     30 C         141.6582  138.0658  164.1621 C.ar    1  UNL1       -0.0208
     31 C         142.4198  138.2256  162.8797 C.ar    1  UNL1       -0.0042
     32 C         143.8147  138.7767  162.8995 C.ar    1  UNL1       -0.0003
     33 C         144.4480  139.1681  164.2017 C.ar    1  UNL1       -0.0000
     34 C         143.6864  139.0084  165.4841 C.ar    1  UNL1       -0.0003
     35 C         142.2915  138.4572  165.4642 C.ar    1  UNL1       -0.0042
@<TRIPOS>BOND
     1     1     2    2
     2     2     3    1
     3     3    19    1
     4    19    20    1
     5    20    21    1
     6    21    22    1
     7    22    23   ar
     8    23    24   ar
     9    24    25   ar
    10    25    26   ar
    11    26    27   ar
    12     3     4    1
    13     4     5    1
    14     5     6    1
    15     6     7    1
    16     7     8    1
    17     8    28    1
    18    28    29    1
    19    29    30    1
    20    30    31   ar
    21    31    32   ar
    22    32    33   ar
    23    33    34   ar
    24    34    35   ar
    25     8     9    1
    26     9    10    1
    27     5    11    1
    28    11    12    1
    29    12    13    1
    30    13    14   ar
    31    14    15   ar
    32    15    16   ar
    33    16    17   ar
    34    17    18   ar
    35    12     2   am
    36    18    13   ar
    37    27    22   ar
    38    10     5    1
    39    35    30   ar
@<TRIPOS>MOLECULE
*****
 35 39 0 0 0
SMALL
GASTEIGER

@<TRIPOS>ATOM
      1 O         142.8071  139.9037  165.8719 O.2     1  UNL1       -0.2718
      2 C         142.6260  139.6905  164.3981 C.2     1  UNL1        0.2592
      3 C         143.7576  139.9730  163.4549 C.3     1  UNL1        0.2208
      4 O         143.5766  139.7599  161.9812 O.3     1  UNL1       -0.3478
      5 C         142.2639  139.2642  161.4507 C.3     1  UNL1        0.1146
      6 C         140.9513  138.7686  160.9203 C.3     1  UNL1        0.0463
      7 C         140.7703  138.5555  159.4466 C.3     1  UNL1        0.0746
      8 N         141.9019  138.8380  158.5034 N.3     1  UNL1       -0.2722
      9 C         143.2145  139.3336  159.0338 C.3     1  UNL1        0.0746
     10 C         143.3955  139.5467  160.5074 C.3     1  UNL1        0.0463
     11 C         141.1324  138.9817  162.3940 C.3     1  UNL1        0.1254
     12 N         141.3134  139.1949  163.8677 N.am    1  UNL1       -0.2542
     13 C         140.1819  138.9124  164.8110 C.ar    1  UNL1        0.0540
     14 C         139.5429  137.5554  164.8307 C.ar    1  UNL1        0.0149
     15 C         138.4113  137.2729  165.7740 C.ar    1  UNL1        0.0013
     16 C         137.9187  138.3474  166.6975 C.ar    1  UNL1        0.0001
     17 C         138.5577  139.7044  166.6777 C.ar    1  UNL1        0.0013
     18 C         139.6892  139.9869  165.7345 C.ar    1  UNL1        0.0149
     19 C         145.0703  140.4687  163.9854 C.3     1  UNL1        0.1814
     20 O         145.3616  141.9399  164.0105 O.3     1  UNL1       -0.3459
     21 C         144.6737  142.8238  165.0081 C.3     1  UNL1        0.1687
     22 C         143.3908  143.5101  164.6432 C.ar    1  UNL1        0.0073
     23 C         142.0903  143.0168  165.2047 C.ar    1  UNL1       -0.0019
     24 C         140.8074  143.7031  164.8397 C.ar    1  UNL1       -0.0002
     25 C         140.8250  144.8826  163.9132 C.ar    1  UNL1       -0.0000
     26 C         142.1255  145.3758  163.3517 C.ar    1  UNL1       -0.0002
     27 C         143.4084  144.6896  163.7167 C.ar    1  UNL1       -0.0019
     28 C         141.7208  138.6248  157.0296 C.3     1  UNL1        0.0768
     29 C         140.9666  137.4275  156.5321 C.3     1  UNL1        0.0437
     30 C         141.7045  136.1708  156.1765 C.ar    1  UNL1       -0.0208
     31 C         142.9697  135.8140  156.8989 C.ar    1  UNL1       -0.0042
     32 C         143.7074  134.5574  156.5433 C.ar    1  UNL1       -0.0003
     33 C         143.1800  133.6576  155.4653 C.ar    1  UNL1       -0.0000
     34 C         141.9149  134.0144  154.7428 C.ar    1  UNL1       -0.0003
     35 C         141.1771  135.2710  155.0984 C.ar    1  UNL1       -0.0042
@<TRIPOS>BOND
     1     1     2    2
     2     2     3    1
     3     3    19    1
     4    19    20    1
     5    20    21    1
     6    21    22    1
     7    22    23   ar
     8    23    24   ar
     9    24    25   ar
    10    25    26   ar
    11    26    27   ar
    12     3     4    1
    13     4     5    1
    14     5     6    1
    15     6     7    1
    16     7     8    1
    17     8    28    1
    18    28    29    1
    19    29    30    1
    20    30    31   ar
    21    31    32   ar
    22    32    33   ar
    23    33    34   ar
    24    34    35   ar
    25     8     9    1
    26     9    10    1
    27     5    11    1
    28    11    12    1
    29    12    13    1
    30    13    14   ar
    31    14    15   ar
    32    15    16   ar
    33    16    17   ar
    34    17    18   ar
    35    12     2   am
    36    18    13   ar
    37    27    22   ar
    38    10     5    1
    39    35    30   ar
