@<TRIPOS>MOLECULE
*****
 25 27 0 0 0
SMALL
GASTEIGER

@<TRIPOS>ATOM
      1 N         138.0499  140.3241  162.9648 N.ar    1  UNL1       -0.3165
      2 C         137.9307  139.1222  162.0753 C.ar    1  UNL1        0.0779
      3 C         138.9083  138.0911  162.5560 C.ar    1  UNL1        0.0392
      4 C         139.6317  138.6557  163.7426 C.ar    1  UNL1        0.0985
      5 N         140.7049  138.0914  164.6256 N.ar    1  UNL1       -0.2423
      6 C         141.2476  138.9073  165.7612 C.ar    1  UNL1        0.0989
      7 C         140.7171  140.2874  166.0139 C.ar    1  UNL1        0.0206
      8 C         139.6439  140.8516  165.1309 C.ar    1  UNL1        0.0203
      9 C         139.1012  140.0358  163.9953 C.ar    1  UNL1        0.0782
     10 C         141.2599  141.1032  167.1497 C.ar    1  UNL1        0.0015
     11 C         142.7370  141.3363  167.2669 C.ar    1  UNL1        0.0000
     12 C         143.2797  142.1521  168.4027 C.ar    1  UNL1       -0.0001
     13 C         142.3453  142.7349  169.4211 C.ar    1  UNL1        0.0039
     14 C         140.8681  142.5018  169.3038 C.ar    1  UNL1        0.0714
     15 C         140.3255  141.6860  168.1681 C.ar    1  UNL1        0.0039
     16 C         139.9337  143.0846  170.3223 C.3     1  UNL1        0.4186
     17 F         138.9993  143.6674  171.3407 F       1  UNL1       -0.1659
     18 F         140.5801  144.4269  170.1472 F       1  UNL1       -0.1659
     19 F         139.2874  141.7424  170.4973 F       1  UNL1       -0.1659
     20 C         137.2570  141.5918  162.8450 C.3     1  UNL1        0.1920
     21 C         138.8160  145.2313  162.5747 C.3     1  UNL1        0.1150
     22 N         138.1805  144.0009  163.1509 N.am    1  UNL1       -0.2744
     23 C         137.8328  143.9490  164.6091 C.3     1  UNL1        0.1150
     24 C         137.8926  142.8223  162.2688 C.2     1  UNL1        0.2488
     25 O         138.2403  142.8742  160.8106 O.2     1  UNL1       -0.2728
@<TRIPOS>BOND
     1    21    22    1
     2    22    23    1
     3    22    24   am
     4    24    25    2
     5    24    20    1
     6    20     1    1
     7     1     2   ar
     8     2     3   ar
     9     3     4   ar
    10     4     5   ar
    11     5     6   ar
    12     6     7   ar
    13     7    10    1
    14    10    11   ar
    15    11    12   ar
    16    12    13   ar
    17    13    14   ar
    18    14    16    1
    19    16    17    1
    20    16    18    1
    21    16    19    1
    22    14    15   ar
    23     7     8   ar
    24     8     9   ar
    25     9     1   ar
    26     9     4   ar
    27    15    10   ar
@<TRIPOS>MOLECULE
*****
 25 27 0 0 0
SMALL
GASTEIGER

@<TRIPOS>ATOM
      1 N         137.8678  141.4096  162.7749 N.ar    1  UNL1       -0.3165
      2 C         137.5741  140.5026  161.6169 C.ar    1  UNL1        0.0779
      3 C         137.9466  139.1056  162.0162 C.ar    1  UNL1        0.0392
      4 C         138.4707  139.1491  163.4210 C.ar    1  UNL1        0.0985
      5 N         138.9859  138.0761  164.3338 N.ar    1  UNL1       -0.2423
      6 C         139.4524  138.4271  165.7155 C.ar    1  UNL1        0.0989
      7 C         139.4037  139.8511  166.1844 C.ar    1  UNL1        0.0206
      8 C         138.8885  140.9241  165.2716 C.ar    1  UNL1        0.0203
      9 C         138.4220  140.5731  163.8899 C.ar    1  UNL1        0.0782
     10 C         139.8703  140.2021  167.5662 C.ar    1  UNL1        0.0015
     11 C         138.9770  139.9533  168.7452 C.ar    1  UNL1        0.0000
     12 C         139.4436  140.3043  170.1269 C.ar    1  UNL1       -0.0001
     13 C         140.8035  140.9040  170.3296 C.ar    1  UNL1        0.0039
     14 C         141.6968  141.1528  169.1505 C.ar    1  UNL1        0.0714
     15 C         141.2302  140.8018  167.7688 C.ar    1  UNL1        0.0039
     16 C         143.0566  141.7525  169.3532 C.3     1  UNL1        0.4186
     17 F         144.4165  142.3523  169.5558 F       1  UNL1       -0.1659
     18 F         143.4279  140.6081  170.2490 F       1  UNL1       -0.1659
     19 F         142.6854  142.8970  168.4574 F       1  UNL1       -0.1659
     20 C         137.6464  142.8927  162.8115 C.3     1  UNL1        0.1920
     21 C         140.4348  145.6940  162.4540 C.3     1  UNL1        0.1150
     22 N         139.4248  144.7695  163.0666 N.am    1  UNL1       -0.2744
     23 C         139.1831  144.7974  164.5467 C.3     1  UNL1        0.1150
     24 C         138.6565  143.8172  162.1990 C.2     1  UNL1        0.2488
     25 O         138.8981  143.7894  160.7188 O.2     1  UNL1       -0.2728
@<TRIPOS>BOND
     1    21    22    1
     2    22    23    1
     3    22    24   am
     4    24    25    2
     5    24    20    1
     6    20     1    1
     7     1     2   ar
     8     2     3   ar
     9     3     4   ar
    10     4     5   ar
    11     5     6   ar
    12     6     7   ar
    13     7    10    1
    14    10    11   ar
    15    11    12   ar
    16    12    13   ar
    17    13    14   ar
    18    14    16    1
    19    16    17    1
    20    16    18    1
    21    16    19    1
    22    14    15   ar
    23     7     8   ar
    24     8     9   ar
    25     9     1   ar
    26     9     4   ar
    27    15    10   ar
@<TRIPOS>MOLECULE
*****
 25 27 0 0 0
SMALL
GASTEIGER

@<TRIPOS>ATOM
      1 N         141.6361  143.9853  161.2205 N.ar    1  UNL1       -0.3165
      2 C         141.1286  145.1334  160.3992 C.ar    1  UNL1        0.0779
      3 C         139.8807  145.6526  161.0495 C.ar    1  UNL1        0.0392
      4 C         139.6168  144.8254  162.2728 C.ar    1  UNL1        0.0985
      5 N         138.5288  144.8774  163.3040 N.ar    1  UNL1       -0.2423
      6 C         138.5257  143.8990  164.4409 C.ar    1  UNL1        0.0989
      7 C         139.6107  142.8686  164.5465 C.ar    1  UNL1        0.0206
      8 C         140.6987  142.8166  163.5153 C.ar    1  UNL1        0.0203
      9 C         140.7017  143.7950  162.3784 C.ar    1  UNL1        0.0782
     10 C         139.6076  141.8901  165.6835 C.ar    1  UNL1        0.0015
     11 C         140.3241  142.2204  166.9592 C.ar    1  UNL1        0.0000
     12 C         140.3210  141.2419  168.0962 C.ar    1  UNL1       -0.0001
     13 C         139.6013  139.9331  167.9574 C.ar    1  UNL1        0.0039
     14 C         138.8847  139.6029  166.6816 C.ar    1  UNL1        0.0714
     15 C         138.8879  140.5813  165.5447 C.ar    1  UNL1        0.0039
     16 C         138.1651  138.2942  166.5428 C.3     1  UNL1        0.4186
     17 F         137.4454  136.9854  166.4040 F       1  UNL1       -0.1659
     18 F         139.0493  137.9305  165.3870 F       1  UNL1       -0.1659
     19 F         137.2808  138.6578  167.6986 F       1  UNL1       -0.1659
     20 C         142.8626  143.1706  160.9341 C.3     1  UNL1        0.1920
     21 C         145.7447  141.8420  163.3170 C.3     1  UNL1        0.1150
     22 N         144.6076  141.8546  162.3389 N.am    1  UNL1       -0.2744
     23 C         144.0782  140.5640  161.7874 C.3     1  UNL1        0.1150
     24 C         143.9998  143.1579  161.9123 C.2     1  UNL1        0.2488
     25 O         144.5291  144.4485  162.4638 O.2     1  UNL1       -0.2728
@<TRIPOS>BOND
     1    21    22    1
     2    22    23    1
     3    22    24   am
     4    24    25    2
     5    24    20    1
     6    20     1    1
     7     1     2   ar
     8     2     3   ar
     9     3     4   ar
    10     4     5   ar
    11     5     6   ar
    12     6     7   ar
    13     7    10    1
    14    10    11   ar
    15    11    12   ar
    16    12    13   ar
    17    13    14   ar
    18    14    16    1
    19    16    17    1
    20    16    18    1
    21    16    19    1
    22    14    15   ar
    23     7     8   ar
    24     8     9   ar
    25     9     1   ar
    26     9     4   ar
    27    15    10   ar
@<TRIPOS>MOLECULE
*****
 25 27 0 0 0
SMALL
GASTEIGER

@<TRIPOS>ATOM
      1 N         143.9764  139.6434  162.0946 N.ar    1  UNL1       -0.3165
      2 C         144.2179  138.9631  160.7798 C.ar    1  UNL1        0.0779
      3 C         143.1032  137.9856  160.5520 C.ar    1  UNL1        0.0392
      4 C         142.1727  138.0618  161.7261 C.ar    1  UNL1        0.0985
      5 N         140.9038  137.3306  162.0503 N.ar    1  UNL1       -0.2423
      6 C         140.1745  137.6240  163.3278 C.ar    1  UNL1        0.0989
      7 C         140.7143  138.6486  164.2812 C.ar    1  UNL1        0.0206
      8 C         141.9832  139.3798  163.9570 C.ar    1  UNL1        0.0203
      9 C         142.7124  139.0864  162.6795 C.ar    1  UNL1        0.0782
     10 C         139.9850  138.9420  165.5588 C.ar    1  UNL1        0.0015
     11 C         138.5765  138.4611  165.7458 C.ar    1  UNL1        0.0000
     12 C         137.8472  138.7545  167.0234 C.ar    1  UNL1       -0.0001
     13 C         138.5265  139.5287  168.1139 C.ar    1  UNL1        0.0039
     14 C         139.9350  140.0096  167.9268 C.ar    1  UNL1        0.0714
     15 C         140.6642  139.7162  166.6493 C.ar    1  UNL1        0.0039
     16 C         140.6143  140.7838  169.0173 C.3     1  UNL1        0.4186
     17 F         141.2935  141.5580  170.1078 F       1  UNL1       -0.1659
     18 F         140.0528  142.0589  168.4617 F       1  UNL1       -0.1659
     19 F         141.1757  139.5086  169.5730 F       1  UNL1       -0.1659
     20 C         144.8462  140.6959  162.7156 C.3     1  UNL1        0.1920
     21 C         143.9984  144.5628  162.9960 C.3     1  UNL1        0.1150
     22 N         144.1830  143.1216  163.3686 N.am    1  UNL1       -0.2744
     23 C         143.8890  142.6648  164.7668 C.3     1  UNL1        0.1150
     24 C         144.6616  142.1372  162.3430 C.2     1  UNL1        0.2488
     25 O         144.9556  142.5940  160.9449 O.2     1  UNL1       -0.2728
@<TRIPOS>BOND
     1    21    22    1
     2    22    23    1
     3    22    24   am
     4    24    25    2
     5    24    20    1
     6    20     1    1
     7     1     2   ar
     8     2     3   ar
     9     3     4   ar
    10     4     5   ar
    11     5     6   ar
    12     6     7   ar
    13     7    10    1
    14    10    11   ar
    15    11    12   ar
    16    12    13   ar
    17    13    14   ar
    18    14    16    1
    19    16    17    1
    20    16    18    1
    21    16    19    1
    22    14    15   ar
    23     7     8   ar
    24     8     9   ar
    25     9     1   ar
    26     9     4   ar
    27    15    10   ar
@<TRIPOS>MOLECULE
*****
 25 27 0 0 0
SMALL
GASTEIGER

@<TRIPOS>ATOM
      1 N         143.6559  142.3764  162.2630 N.ar    1  UNL1       -0.3165
      2 C         144.0708  141.6186  161.0368 C.ar    1  UNL1        0.0779
      3 C         144.1580  140.1653  161.3976 C.ar    1  UNL1        0.0392
      4 C         143.7971  140.0248  162.8467 C.ar    1  UNL1        0.0985
      5 N         143.7109  138.8291  163.7483 N.ar    1  UNL1       -0.2423
      6 C         143.3143  139.0000  165.1847 C.ar    1  UNL1        0.0989
      7 C         143.0039  140.3666  165.7196 C.ar    1  UNL1        0.0206
      8 C         143.0901  141.5623  164.8181 C.ar    1  UNL1        0.0203
      9 C         143.4867  141.3914  163.3816 C.ar    1  UNL1        0.0782
     10 C         142.6074  140.5375  167.1562 C.ar    1  UNL1        0.0015
     11 C         142.7059  139.3794  168.1043 C.ar    1  UNL1        0.0000
     12 C         142.3094  139.5502  169.5409 C.ar    1  UNL1       -0.0001
     13 C         141.8142  140.8793  170.0292 C.ar    1  UNL1        0.0039
     14 C         141.7156  142.0374  169.0810 C.ar    1  UNL1        0.0714
     15 C         142.1122  141.8665  167.6445 C.ar    1  UNL1        0.0039
     16 C         141.2205  143.3665  169.5694 C.3     1  UNL1        0.4186
     17 F         140.7253  144.6955  170.0577 F       1  UNL1       -0.1659
     18 F         142.3842  143.4537  170.5118 F       1  UNL1       -0.1659
     19 F         140.0567  143.2792  168.6269 F       1  UNL1       -0.1659
     20 C         143.4468  143.8589  162.3546 C.3     1  UNL1        0.1920
     21 C         139.8870  145.5698  161.9664 C.3     1  UNL1        0.1150
     22 N         141.0976  144.9431  162.5920 N.am    1  UNL1       -0.2744
     23 C         141.1699  144.7737  164.0807 C.3     1  UNL1        0.1150
     24 C         142.2360  144.4857  161.7290 C.2     1  UNL1        0.2488
     25 O         142.1638  144.6551  160.2403 O.2     1  UNL1       -0.2728
@<TRIPOS>BOND
     1    21    22    1
     2    22    23    1
     3    22    24   am
     4    24    25    2
     5    24    20    1
     6    20     1    1
     7     1     2   ar
     8     2     3   ar
     9     3     4   ar
    10     4     5   ar
    11     5     6   ar
    12     6     7   ar
    13     7    10    1
    14    10    11   ar
    15    11    12   ar
    16    12    13   ar
    17    13    14   ar
    18    14    16    1
    19    16    17    1
    20    16    18    1
    21    16    19    1
    22    14    15   ar
    23     7     8   ar
    24     8     9   ar
    25     9     1   ar
    26     9     4   ar
    27    15    10   ar
@<TRIPOS>MOLECULE
*****
 25 27 0 0 0
SMALL
GASTEIGER

@<TRIPOS>ATOM
      1 N         143.7257  139.7530  162.9391 N.ar    1  UNL1       -0.3165
      2 C         144.3957  140.3461  161.7352 C.ar    1  UNL1        0.0779
      3 C         144.7864  141.7552  162.0694 C.ar    1  UNL1        0.0392
      4 C         144.3578  142.0330  163.4798 C.ar    1  UNL1        0.0985
      5 N         144.4798  143.2529  164.3440 N.ar    1  UNL1       -0.2423
      6 C         143.9462  143.2353  165.7458 C.ar    1  UNL1        0.0989
      7 C         143.2907  141.9978  166.2833 C.ar    1  UNL1        0.0206
      8 C         143.1687  140.7779  165.4190 C.ar    1  UNL1        0.0203
      9 C         143.7023  140.7955  164.0173 C.ar    1  UNL1        0.0782
     10 C         142.7572  141.9802  167.6851 C.ar    1  UNL1        0.0015
     11 C         143.5880  142.5213  168.8106 C.ar    1  UNL1        0.0000
     12 C         143.0544  142.5038  170.2125 C.ar    1  UNL1       -0.0001
     13 C         141.6900  141.9451  170.4887 C.ar    1  UNL1        0.0039
     14 C         140.8592  141.4039  169.3631 C.ar    1  UNL1        0.0714
     15 C         141.3928  141.4215  167.9613 C.ar    1  UNL1        0.0039
     16 C         139.4948  140.8452  169.6393 C.3     1  UNL1        0.4186
     17 F         138.1304  140.2865  169.9155 F       1  UNL1       -0.1659
     18 F         139.1320  142.0977  170.3806 F       1  UNL1       -0.1659
     19 F         139.8576  139.5927  168.8980 F       1  UNL1       -0.1659
     20 C         143.1757  138.3615  163.0460 C.3     1  UNL1        0.1920
     21 C         139.2939  137.9091  162.3553 C.3     1  UNL1        0.1150
     22 N         140.7603  138.1199  162.1200 N.am    1  UNL1       -0.2744
     23 C         141.2776  138.2999  160.7236 C.3     1  UNL1        0.1150
     24 C         141.7093  138.1507  163.2812 C.2     1  UNL1        0.2488
     25 O         141.1920  137.9707  164.6776 O.2     1  UNL1       -0.2728
@<TRIPOS>BOND
     1    21    22    1
     2    22    23    1
     3    22    24   am
     4    24    25    2
     5    24    20    1
     6    20     1    1
     7     1     2   ar
     8     2     3   ar
     9     3     4   ar
    10     4     5   ar
    11     5     6   ar
    12     6     7   ar
    13     7    10    1
    14    10    11   ar
    15    11    12   ar
    16    12    13   ar
    17    13    14   ar
    18    14    16    1
    19    16    17    1
    20    16    18    1
    21    16    19    1
    22    14    15   ar
    23     7     8   ar
    24     8     9   ar
    25     9     1   ar
    26     9     4   ar
    27    15    10   ar
@<TRIPOS>MOLECULE
*****
 25 27 0 0 0
SMALL
GASTEIGER

@<TRIPOS>ATOM
      1 N         144.2087  142.5812  163.2420 N.ar    1  UNL1       -0.3165
      2 C         144.4947  143.8853  162.5583 C.ar    1  UNL1        0.0779
      3 C         143.3243  144.7951  162.7872 C.ar    1  UNL1        0.0392
      4 C         142.3150  144.0532  163.6124 C.ar    1  UNL1        0.0985
      5 N         140.9688  144.4469  164.1442 N.ar    1  UNL1       -0.2423
      6 C         140.1693  143.4722  164.9571 C.ar    1  UNL1        0.0989
      7 C         140.7159  142.1039  165.2381 C.ar    1  UNL1        0.0206
      8 C         142.0621  141.7103  164.7063 C.ar    1  UNL1        0.0203
      9 C         142.8616  142.6849  163.8935 C.ar    1  UNL1        0.0782
     10 C         139.9163  141.1292  166.0510 C.ar    1  UNL1        0.0015
     11 C         138.8698  140.2822  165.3899 C.ar    1  UNL1        0.0000
     12 C         138.0701  139.3075  166.2028 C.ar    1  UNL1       -0.0001
     13 C         138.3171  139.1800  167.6768 C.ar    1  UNL1        0.0039
     14 C         139.3638  140.0271  168.3379 C.ar    1  UNL1        0.0714
     15 C         140.1633  141.0017  167.5250 C.ar    1  UNL1        0.0039
     16 C         139.6108  139.8996  169.8119 C.3     1  UNL1        0.4186
     17 F         139.8578  139.7721  171.2859 F       1  UNL1       -0.1659
     18 F         138.1965  140.3181  170.0851 F       1  UNL1       -0.1659
     19 F         141.0250  139.4810  169.5387 F       1  UNL1       -0.1659
     20 C         145.1114  141.3835  163.2694 C.3     1  UNL1        0.1920
     21 C         143.3620  138.0843  161.9259 C.3     1  UNL1        0.1150
     22 N         143.9468  139.4651  161.9602 N.am    1  UNL1       -0.2744
     23 C         143.9518  140.3086  160.7198 C.3     1  UNL1        0.1150
     24 C         144.5266  140.0025  163.2350 C.2     1  UNL1        0.2488
     25 O         144.5215  139.1591  164.4754 O.2     1  UNL1       -0.2728
@<TRIPOS>BOND
     1    21    22    1
     2    22    23    1
     3    22    24   am
     4    24    25    2
     5    24    20    1
     6    20     1    1
     7     1     2   ar
     8     2     3   ar
     9     3     4   ar
    10     4     5   ar
    11     5     6   ar
    12     6     7   ar
    13     7    10    1
    14    10    11   ar
    15    11    12   ar
    16    12    13   ar
    17    13    14   ar
    18    14    16    1
    19    16    17    1
    20    16    18    1
    21    16    19    1
    22    14    15   ar
    23     7     8   ar
    24     8     9   ar
    25     9     1   ar
    26     9     4   ar
    27    15    10   ar
@<TRIPOS>MOLECULE
*****
 25 27 0 0 0
SMALL
GASTEIGER

@<TRIPOS>ATOM
      1 N         142.6221  138.6742  163.0682 N.ar    1  UNL1       -0.3165
      2 C         142.0014  137.9491  161.9111 C.ar    1  UNL1        0.0779
      3 C         140.5646  137.6814  162.2488 C.ar    1  UNL1        0.0392
      4 C         140.2974  138.2411  163.6146 C.ar    1  UNL1        0.0985
      5 N         139.0604  138.2712  164.4625 N.ar    1  UNL1       -0.2423
      6 C         139.0951  138.9149  165.8169 C.ar    1  UNL1        0.0989
      7 C         140.3667  139.5285  166.3233 C.ar    1  UNL1        0.0206
      8 C         141.6037  139.4984  165.4754 C.ar    1  UNL1        0.0203
      9 C         141.5690  138.8546  164.1211 C.ar    1  UNL1        0.0782
     10 C         140.4014  140.1722  167.6778 C.ar    1  UNL1        0.0015
     11 C         139.2132  140.0697  168.5875 C.ar    1  UNL1        0.0000
     12 C         139.2478  140.7134  169.9420 C.ar    1  UNL1       -0.0001
     13 C         140.4707  141.4597  170.3866 C.ar    1  UNL1        0.0039
     14 C         141.6589  141.5623  169.4768 C.ar    1  UNL1        0.0714
     15 C         141.6242  140.9186  168.1224 C.ar    1  UNL1        0.0039
     16 C         142.8817  142.3086  169.9214 C.3     1  UNL1        0.4186
     17 F         144.1045  143.0549  170.3660 F       1  UNL1       -0.1659
     18 F         143.6802  141.0406  169.8539 F       1  UNL1       -0.1659
     19 F         142.0832  143.5766  169.9889 F       1  UNL1       -0.1659
     20 C         144.0460  139.1375  163.1570 C.3     1  UNL1        0.1920
     21 C         144.6373  142.9318  162.1548 C.3     1  UNL1        0.1150
     22 N         144.3305  141.4677  162.0436 N.am    1  UNL1       -0.2744
     23 C         144.0016  140.8696  160.7079 C.3     1  UNL1        0.1150
     24 C         144.3528  140.6017  163.2682 C.2     1  UNL1        0.2488
     25 O         144.6817  141.1998  164.6039 O.2     1  UNL1       -0.2728
@<TRIPOS>BOND
     1    21    22    1
     2    22    23    1
     3    22    24   am
     4    24    25    2
     5    24    20    1
     6    20     1    1
     7     1     2   ar
     8     2     3   ar
     9     3     4   ar
    10     4     5   ar
    11     5     6   ar
    12     6     7   ar
    13     7    10    1
    14    10    11   ar
    15    11    12   ar
    16    12    13   ar
    17    13    14   ar
    18    14    16    1
    19    16    17    1
    20    16    18    1
    21    16    19    1
    22    14    15   ar
    23     7     8   ar
    24     8     9   ar
    25     9     1   ar
    26     9     4   ar
    27    15    10   ar
@<TRIPOS>MOLECULE
*****
 25 27 0 0 0
SMALL
GASTEIGER

@<TRIPOS>ATOM
      1 N         138.6053  140.8278  161.2655 N.ar    1  UNL1       -0.3165
      2 C         138.4699  140.0926  159.9651 C.ar    1  UNL1        0.0779
      3 C         139.1568  138.7669  160.1084 C.ar    1  UNL1        0.0392
      4 C         139.7167  138.6827  161.4975 C.ar    1  UNL1        0.0985
      5 N         140.4929  137.6108  162.2035 N.ar    1  UNL1       -0.2423
      6 C         140.9282  137.8126  163.6247 C.ar    1  UNL1        0.0989
      7 C         140.5873  139.0863  164.3398 C.ar    1  UNL1        0.0206
      8 C         139.8112  140.1582  163.6338 C.ar    1  UNL1        0.0203
      9 C         139.3759  139.9564  162.2126 C.ar    1  UNL1        0.0782
     10 C         141.0227  139.2881  165.7610 C.ar    1  UNL1        0.0015
     11 C         142.4302  138.9658  166.1672 C.ar    1  UNL1        0.0000
     12 C         142.8655  139.1675  167.5885 C.ar    1  UNL1       -0.0001
     13 C         141.8933  139.6917  168.6034 C.ar    1  UNL1        0.0039
     14 C         140.4858  140.0140  168.1971 C.ar    1  UNL1        0.0714
     15 C         140.0505  139.8123  166.7760 C.ar    1  UNL1        0.0039
     16 C         139.5136  140.5382  169.2121 C.3     1  UNL1        0.4186
     17 F         138.5414  141.0623  170.2270 F       1  UNL1       -0.1659
     18 F         140.5896  141.4059  169.7946 F       1  UNL1       -0.1659
     19 F         138.4376  139.6705  168.6295 F       1  UNL1       -0.1659
     20 C         138.0650  142.1944  161.5662 C.3     1  UNL1        0.1920
     21 C         140.2354  145.4396  162.2795 C.3     1  UNL1        0.1150
     22 N         139.3801  144.2284  162.5064 N.am    1  UNL1       -0.2744
     23 C         138.9846  143.8398  163.9001 C.3     1  UNL1        0.1150
     24 C         138.9204  143.4057  161.3394 C.2     1  UNL1        0.2488
     25 O         139.3159  143.7943  159.9456 O.2     1  UNL1       -0.2728
@<TRIPOS>BOND
     1    21    22    1
     2    22    23    1
     3    22    24   am
     4    24    25    2
     5    24    20    1
     6    20     1    1
     7     1     2   ar
     8     2     3   ar
     9     3     4   ar
    10     4     5   ar
    11     5     6   ar
    12     6     7   ar
    13     7    10    1
    14    10    11   ar
    15    11    12   ar
    16    12    13   ar
    17    13    14   ar
    18    14    16    1
    19    16    17    1
    20    16    18    1
    21    16    19    1
    22    14    15   ar
    23     7     8   ar
    24     8     9   ar
    25     9     1   ar
    26     9     4   ar
    27    15    10   ar
