@<TRIPOS>MOLECULE
*****
 39 44 0 0 0
SMALL
GASTEIGER

@<TRIPOS>ATOM
      1 C         137.8204  142.9368  163.0555 C.3     1  UNL1        0.0932
      2 C         137.6560  141.8040  164.0250 C.3     1  UNL1        0.0286
      3 C         137.6822  140.3869  163.5340 C.3     1  UNL1        0.0193
      4 C         137.8730  140.1025  162.0737 C.3     1  UNL1        0.0700
      5 C         138.0375  141.2353  161.1042 C.3     1  UNL1        0.0193
      6 C         138.0112  142.6524  161.5951 C.3     1  UNL1        0.0286
      7 C         137.8655  140.8954  162.2954 C.3     1  UNL1        0.1562
      8 O         137.8417  142.1769  162.7393 O.3     1  UNL1       -0.3572
      9 N         137.8992  138.6854  161.5827 N.3     1  UNL1       -0.2926
     10 H         137.3234  138.6545  160.7414 H       1  UNL1        0.1236
     11 C         139.2061  138.0355  161.2370 C.3     1  UNL1        0.1152
     12 C         140.3984  138.2290  162.1264 C.ar    1  UNL1        0.0765
     13 C         140.5343  137.4234  163.3843 C.ar    1  UNL1        0.0193
     14 C         141.7266  137.6169  164.2737 C.ar    1  UNL1        0.0411
     15 C         142.7830  138.6159  163.9052 C.ar    1  UNL1        0.1708
     16 C         142.6471  139.4215  162.6472 C.ar    1  UNL1        0.1682
     17 N         141.4548  139.2280  161.7578 N.ar    1  UNL1       -0.2304
     18 N         143.7035  140.4206  162.2786 N.am    1  UNL1       -0.2639
     19 C         144.8958  140.6141  163.1680 C.2     1  UNL1        0.2718
     20 O         145.9522  141.6132  162.7994 O.2     1  UNL1       -0.2707
     21 C         145.0317  139.8085  164.4260 C.3     1  UNL1        0.2898
     22 O         143.9753  138.8094  164.7946 O.3     1  UNL1       -0.4628
     23 H         143.6143  140.9494  161.4529 H       1  UNL1        0.1565
     24 C         137.7942  144.3539  163.5465 C.3     1  UNL1        0.0319
     25 C         138.9057  144.8684  164.4124 C.3     1  UNL1        0.0304
     26 C         142.2725  141.7551  167.2798 C.ar    1  UNL1        0.1931
     27 C         143.0210  142.1452  166.0399 C.ar    1  UNL1        0.0623
     28 C         142.3664  143.0210  165.0130 C.ar    1  UNL1        0.1019
     29 N         143.1149  143.4111  163.7730 N.ar    1  UNL1       -0.2422
     30 C         142.4603  144.2869  162.7462 C.ar    1  UNL1        0.0986
     31 C         141.0572  144.7727  162.9593 C.ar    1  UNL1        0.0179
     32 C         140.3087  144.3826  164.1993 C.ar    1  UNL1       -0.0013
     33 C         140.9633  143.5068  165.2261 C.ar    1  UNL1        0.0982
     34 N         140.2148  143.1167  166.4662 N.ar    1  UNL1       -0.2079
     35 C         140.8694  142.2409  167.4930 C.ar    1  UNL1        0.2602
     36 C         142.5829  139.4210  168.3779 C.3     1  UNL1        0.2527
     37 O         142.9270  140.8792  168.3067 O.3     1  UNL1       -0.4667
     38 O         140.1209  141.8508  168.7330 O.3     1  UNL1       -0.4541
     39 C         140.1472  142.7446  169.9373 C.3     1  UNL1        0.2543
@<TRIPOS>BOND
     1    36    37    1
     2    37    26    1
     3    26    27   ar
     4    27    28   ar
     5    28    29   ar
     6    29    30   ar
     7    30    31   ar
     8    31    32   ar
     9    32    25    1
    10    25    24    1
    11    24     1    1
    12     1     2    1
    13     2     3    1
    14     3     4    1
    15     4     9    1
    16     9    11    1
    17    11    12    1
    18    12    13   ar
    19    13    14   ar
    20    14    15   ar
    21    15    16   ar
    22    16    17   ar
    23    16    18    1
    24    18    19   am
    25    19    20    2
    26    19    21    1
    27    21    22    1
    28     4     5    1
    29     5     6    1
    30     4     7    1
    31     7     8    1
    32    32    33   ar
    33    33    34   ar
    34    34    35   ar
    35    35    38    1
    36    38    39    1
    37    35    26   ar
    38    33    28   ar
    39     6     1    1
    40     8     1    1
    41    17    12   ar
    42    22    15    1
    43     9    10    1
    44    18    23    1
@<TRIPOS>MOLECULE
*****
 39 44 0 0 0
SMALL
GASTEIGER

@<TRIPOS>ATOM
      1 C         140.8397  144.9155  162.9153 C.3     1  UNL1        0.0932
      2 C         141.1557  144.2812  161.5933 C.3     1  UNL1        0.0286
      3 C         142.5410  143.7777  161.3150 C.3     1  UNL1        0.0193
      4 C         143.6103  143.9085  162.3588 C.3     1  UNL1        0.0700
      5 C         143.2943  144.5428  163.6809 C.3     1  UNL1        0.0193
      6 C         141.9090  145.0463  163.9591 C.3     1  UNL1        0.0286
      7 C         142.8659  144.1992  162.5572 C.3     1  UNL1        0.1562
      8 O         141.6133  144.6545  162.8088 O.3     1  UNL1       -0.3572
      9 N         144.9956  143.4050  162.0805 N.3     1  UNL1       -0.2926
     10 H         145.5645  143.6445  162.8924 H       1  UNL1        0.1236
     11 C         145.2231  141.9478  161.8070 C.3     1  UNL1        0.1152
     12 C         144.5107  140.9111  162.6242 C.ar    1  UNL1        0.0765
     13 C         145.1364  140.3887  163.8834 C.ar    1  UNL1        0.0193
     14 C         144.4240  139.3520  164.7006 C.ar    1  UNL1        0.0411
     15 C         143.0861  138.8378  164.2586 C.ar    1  UNL1        0.1708
     16 C         142.4604  139.3602  162.9995 C.ar    1  UNL1        0.1682
     17 N         143.1728  140.3969  162.1822 N.ar    1  UNL1       -0.2304
     18 N         141.1224  138.8460  162.5574 N.am    1  UNL1       -0.2639
     19 C         140.4101  137.8093  163.3747 C.2     1  UNL1        0.2718
     20 O         139.0721  137.2951  162.9327 O.2     1  UNL1       -0.2707
     21 C         141.0357  137.2869  164.6339 C.3     1  UNL1        0.2898
     22 O         142.3737  137.8011  165.0759 O.3     1  UNL1       -0.4628
     23 H         140.7118  139.1889  161.7310 H       1  UNL1        0.1565
     24 C         139.4544  145.4190  163.1936 C.3     1  UNL1        0.0319
     25 C         138.6099  144.7524  164.2388 C.3     1  UNL1        0.0304
     26 C         140.3333  140.7115  167.3933 C.ar    1  UNL1        0.1931
     27 C         139.5122  140.0740  166.3120 C.ar    1  UNL1        0.0623
     28 C         138.8761  140.9248  165.2530 C.ar    1  UNL1        0.1019
     29 N         138.0550  140.2872  164.1717 N.ar    1  UNL1       -0.2422
     30 C         137.4189  141.1381  163.1127 C.ar    1  UNL1        0.0986
     31 C         137.6038  142.6265  163.1351 C.ar    1  UNL1        0.0179
     32 C         138.4249  143.2640  164.2164 C.ar    1  UNL1       -0.0013
     33 C         139.0611  142.4132  165.2754 C.ar    1  UNL1        0.0982
     34 N         139.8822  143.0507  166.3568 N.ar    1  UNL1       -0.2079
     35 C         140.5183  142.1999  167.4157 C.ar    1  UNL1        0.2602
     36 C         142.4351  139.5491  168.3839 C.3     1  UNL1        0.2527
     37 O         140.9695  139.8607  168.4524 O.3     1  UNL1       -0.4667
     38 O         141.3395  142.8374  168.4971 O.3     1  UNL1       -0.4541
     39 C         140.6644  143.5760  169.6146 C.3     1  UNL1        0.2543
@<TRIPOS>BOND
     1    36    37    1
     2    37    26    1
     3    26    27   ar
     4    27    28   ar
     5    28    29   ar
     6    29    30   ar
     7    30    31   ar
     8    31    32   ar
     9    32    25    1
    10    25    24    1
    11    24     1    1
    12     1     2    1
    13     2     3    1
    14     3     4    1
    15     4     9    1
    16     9    11    1
    17    11    12    1
    18    12    13   ar
    19    13    14   ar
    20    14    15   ar
    21    15    16   ar
    22    16    17   ar
    23    16    18    1
    24    18    19   am
    25    19    20    2
    26    19    21    1
    27    21    22    1
    28     4     5    1
    29     5     6    1
    30     4     7    1
    31     7     8    1
    32    32    33   ar
    33    33    34   ar
    34    34    35   ar
    35    35    38    1
    36    38    39    1
    37    35    26   ar
    38    33    28   ar
    39     6     1    1
    40     8     1    1
    41    17    12   ar
    42    22    15    1
    43     9    10    1
    44    18    23    1
@<TRIPOS>MOLECULE
*****
 39 44 0 0 0
SMALL
GASTEIGER

@<TRIPOS>ATOM
      1 C         142.1765  137.9466  164.0335 C.3     1  UNL1        0.0932
      2 C         143.0287  138.5487  165.1111 C.3     1  UNL1        0.0286
      3 C         144.1655  139.4575  164.7483 C.3     1  UNL1        0.0193
      4 C         144.4502  139.7642  163.3079 C.3     1  UNL1        0.0700
      5 C         143.5980  139.1621  162.2302 C.3     1  UNL1        0.0193
      6 C         142.4612  138.2533  162.5930 C.3     1  UNL1        0.0286
      7 C         143.8163  139.2605  163.4577 C.3     1  UNL1        0.1562
      8 O         142.7883  138.4387  163.7858 O.3     1  UNL1       -0.3572
      9 N         145.5871  140.6730  162.9451 N.3     1  UNL1       -0.2926
     10 H         145.6141  140.7185  161.9264 H       1  UNL1        0.1236
     11 C         145.6042  142.0880  163.4423 C.3     1  UNL1        0.1152
     12 C         144.4107  142.9718  163.2309 C.ar    1  UNL1        0.0765
     13 C         143.7643  143.6518  164.4012 C.ar    1  UNL1        0.0193
     14 C         142.5709  144.5356  164.1897 C.ar    1  UNL1        0.0411
     15 C         142.0239  144.7393  162.8080 C.ar    1  UNL1        0.1708
     16 C         142.6703  144.0593  161.6377 C.ar    1  UNL1        0.1682
     17 N         143.8637  143.1755  161.8491 N.ar    1  UNL1       -0.2304
     18 N         142.1233  144.2630  160.2559 N.am    1  UNL1       -0.2639
     19 C         140.9299  145.1467  160.0444 C.2     1  UNL1        0.2718
     20 O         140.3829  145.3504  158.6627 O.2     1  UNL1       -0.2707
     21 C         140.2835  145.8268  161.2148 C.3     1  UNL1        0.2898
     22 O         140.8304  145.6230  162.5965 O.3     1  UNL1       -0.4628
     23 H         142.5476  143.8166  159.4877 H       1  UNL1        0.1565
     24 C         141.0396  137.0378  164.3964 C.3     1  UNL1        0.0319
     25 C         139.6991  137.6150  164.7424 C.3     1  UNL1        0.0304
     26 C         139.2681  143.0024  164.9408 C.ar    1  UNL1        0.1931
     27 C         138.5743  142.5757  163.6813 C.ar    1  UNL1        0.0623
     28 C         138.5086  141.1221  163.3167 C.ar    1  UNL1        0.1019
     29 N         137.8147  140.6954  162.0572 N.ar    1  UNL1       -0.2422
     30 C         137.7490  139.2419  161.6927 C.ar    1  UNL1        0.0986
     31 C         138.3772  138.2151  162.5878 C.ar    1  UNL1        0.0179
     32 C         139.0710  138.6418  163.8473 C.ar    1  UNL1       -0.0013
     33 C         139.1367  140.0953  164.2118 C.ar    1  UNL1        0.0982
     34 N         139.8305  140.5221  165.4714 N.ar    1  UNL1       -0.2079
     35 C         139.8962  141.9756  165.8359 C.ar    1  UNL1        0.2602
     36 C         138.1407  145.1313  165.9138 C.3     1  UNL1        0.2527
     37 O         139.3338  144.4560  165.3054 O.3     1  UNL1       -0.4667
     38 O         140.5901  142.4024  167.0955 O.3     1  UNL1       -0.4541
     39 C         142.0439  142.0905  167.2935 C.3     1  UNL1        0.2543
@<TRIPOS>BOND
     1    36    37    1
     2    37    26    1
     3    26    27   ar
     4    27    28   ar
     5    28    29   ar
     6    29    30   ar
     7    30    31   ar
     8    31    32   ar
     9    32    25    1
    10    25    24    1
    11    24     1    1
    12     1     2    1
    13     2     3    1
    14     3     4    1
    15     4     9    1
    16     9    11    1
    17    11    12    1
    18    12    13   ar
    19    13    14   ar
    20    14    15   ar
    21    15    16   ar
    22    16    17   ar
    23    16    18    1
    24    18    19   am
    25    19    20    2
    26    19    21    1
    27    21    22    1
    28     4     5    1
    29     5     6    1
    30     4     7    1
    31     7     8    1
    32    32    33   ar
    33    33    34   ar
    34    34    35   ar
    35    35    38    1
    36    38    39    1
    37    35    26   ar
    38    33    28   ar
    39     6     1    1
    40     8     1    1
    41    17    12   ar
    42    22    15    1
    43     9    10    1
    44    18    23    1
@<TRIPOS>MOLECULE
*****
 39 44 0 0 0
SMALL
GASTEIGER

@<TRIPOS>ATOM
      1 C         139.8036  137.9310  164.2493 C.3     1  UNL1        0.0932
      2 C         139.4175  138.0258  162.8029 C.3     1  UNL1        0.0286
      3 C         140.4681  137.9192  161.7376 C.3     1  UNL1        0.0193
      4 C         141.9048  137.7178  162.1186 C.3     1  UNL1        0.0700
      5 C         142.2910  137.6229  163.5650 C.3     1  UNL1        0.0193
      6 C         141.2404  137.7295  164.6303 C.3     1  UNL1        0.0286
      7 C         141.3647  137.7704  162.7378 C.3     1  UNL1        0.1562
      8 O         140.4146  137.8668  163.7011 O.3     1  UNL1       -0.3572
      9 N         142.9554  137.6112  161.0533 N.3     1  UNL1       -0.2926
     10 H         142.4655  137.5732  160.1594 H       1  UNL1        0.1236
     11 C         144.0057  138.6746  160.9266 C.3     1  UNL1        0.1152
     12 C         143.7414  140.0558  161.4487 C.ar    1  UNL1        0.0765
     13 C         142.7795  140.9569  160.7327 C.ar    1  UNL1        0.0193
     14 C         142.5152  142.3380  161.2548 C.ar    1  UNL1        0.0411
     15 C         143.2128  142.8181  162.4929 C.ar    1  UNL1        0.1708
     16 C         144.1747  141.9170  163.2089 C.ar    1  UNL1        0.1682
     17 N         144.4390  140.5358  162.6868 N.ar    1  UNL1       -0.2304
     18 N         144.8723  142.3970  164.4470 N.am    1  UNL1       -0.2639
     19 C         144.6081  143.7781  164.9691 C.2     1  UNL1        0.2718
     20 O         145.3057  144.2582  166.2071 O.2     1  UNL1       -0.2707
     21 C         143.6461  144.6793  164.2530 C.3     1  UNL1        0.2898
     22 O         142.9485  144.1992  163.0149 O.3     1  UNL1       -0.4628
     23 H         145.5037  141.8055  164.9170 H       1  UNL1        0.1565
     24 C         138.7530  138.0376  165.3146 C.3     1  UNL1        0.0319
     25 C         138.0969  139.3577  165.5915 C.3     1  UNL1        0.0304
     26 C         139.2172  144.1869  163.4296 C.ar    1  UNL1        0.1931
     27 C         139.9468  144.1381  164.7392 C.ar    1  UNL1        0.0623
     28 C         139.8491  142.9185  165.6072 C.ar    1  UNL1        0.1019
     29 N         140.5787  142.8697  166.9169 N.ar    1  UNL1       -0.2422
     30 C         140.4810  141.6502  167.7847 C.ar    1  UNL1        0.0986
     31 C         139.6538  140.4795  167.3429 C.ar    1  UNL1        0.0179
     32 C         138.9242  140.5284  166.0333 C.ar    1  UNL1       -0.0013
     33 C         139.0218  141.7479  165.1654 C.ar    1  UNL1        0.0982
     34 N         138.2922  141.7967  163.8556 N.ar    1  UNL1       -0.2079
     35 C         138.3899  143.0162  162.9878 C.ar    1  UNL1        0.2602
     36 C         140.2501  145.4195  161.3891 C.3     1  UNL1        0.2527
     37 O         139.3148  145.4064  162.5616 O.3     1  UNL1       -0.4667
     38 O         137.6603  143.0651  161.6780 O.3     1  UNL1       -0.4541
     39 C         138.2326  142.3765  160.4746 C.3     1  UNL1        0.2543
@<TRIPOS>BOND
     1    36    37    1
     2    37    26    1
     3    26    27   ar
     4    27    28   ar
     5    28    29   ar
     6    29    30   ar
     7    30    31   ar
     8    31    32   ar
     9    32    25    1
    10    25    24    1
    11    24     1    1
    12     1     2    1
    13     2     3    1
    14     3     4    1
    15     4     9    1
    16     9    11    1
    17    11    12    1
    18    12    13   ar
    19    13    14   ar
    20    14    15   ar
    21    15    16   ar
    22    16    17   ar
    23    16    18    1
    24    18    19   am
    25    19    20    2
    26    19    21    1
    27    21    22    1
    28     4     5    1
    29     5     6    1
    30     4     7    1
    31     7     8    1
    32    32    33   ar
    33    33    34   ar
    34    34    35   ar
    35    35    38    1
    36    38    39    1
    37    35    26   ar
    38    33    28   ar
    39     6     1    1
    40     8     1    1
    41    17    12   ar
    42    22    15    1
    43     9    10    1
    44    18    23    1
@<TRIPOS>MOLECULE
*****
 39 44 0 0 0
SMALL
GASTEIGER

@<TRIPOS>ATOM
      1 C         141.8528  138.0378  164.1942 C.3     1  UNL1        0.0932
      2 C         142.1011  138.4223  162.7658 C.3     1  UNL1        0.0286
      3 C         143.3401  139.1839  162.3986 C.3     1  UNL1        0.0193
      4 C         144.3308  139.5609  163.4598 C.3     1  UNL1        0.0700
      5 C         144.0826  139.1764  164.8883 C.3     1  UNL1        0.0193
      6 C         142.8435  138.4148  165.2555 C.3     1  UNL1        0.0286
      7 C         143.6664  139.1435  163.7094 C.3     1  UNL1        0.1562
      8 O         142.5460  138.4549  164.0414 O.3     1  UNL1       -0.3572
      9 N         145.5699  140.3225  163.0926 N.3     1  UNL1       -0.2926
     10 H         145.6924  140.2174  162.0855 H       1  UNL1        0.1236
     11 C         145.6640  141.7897  163.3896 C.3     1  UNL1        0.1152
     12 C         144.4462  142.6579  163.2745 C.ar    1  UNL1        0.0765
     13 C         143.7391  143.1258  164.5118 C.ar    1  UNL1        0.0193
     14 C         142.5213  143.9940  164.3967 C.ar    1  UNL1        0.0411
     15 C         142.0106  144.3942  163.0444 C.ar    1  UNL1        0.1708
     16 C         142.7177  143.9262  161.8071 C.ar    1  UNL1        0.1682
     17 N         143.9355  143.0581  161.9221 N.ar    1  UNL1       -0.2304
     18 N         142.2070  144.3264  160.4546 N.am    1  UNL1       -0.2639
     19 C         140.9892  145.1946  160.3395 C.2     1  UNL1        0.2718
     20 O         140.4785  145.5948  158.9871 O.2     1  UNL1       -0.2707
     21 C         140.2821  145.6626  161.5769 C.3     1  UNL1        0.2898
     22 O         140.7928  145.2624  162.9293 O.3     1  UNL1       -0.4628
     23 H         142.6711  144.0193  159.6425 H       1  UNL1        0.1565
     24 C         140.6137  137.2763  164.5614 C.3     1  UNL1        0.0319
     25 C         139.3458  138.0135  164.8759 C.3     1  UNL1        0.0304
     26 C         140.5231  141.7704  168.5839 C.ar    1  UNL1        0.1931
     27 C         140.1111  142.5180  167.3505 C.ar    1  UNL1        0.0623
     28 C         139.7138  141.7657  166.1151 C.ar    1  UNL1        0.1019
     29 N         139.3018  142.5132  164.8817 N.ar    1  UNL1       -0.2422
     30 C         138.9045  141.7609  163.6463 C.ar    1  UNL1        0.0986
     31 C         138.9192  140.2610  163.6444 C.ar    1  UNL1        0.0179
     32 C         139.3312  139.5134  164.8778 C.ar    1  UNL1       -0.0013
     33 C         139.7285  140.2657  166.1132 C.ar    1  UNL1        0.0982
     34 N         140.1405  139.5182  167.3467 N.ar    1  UNL1       -0.2079
     35 C         140.5378  140.2705  168.5820 C.ar    1  UNL1        0.2602
     36 C         142.3522  142.9176  170.0291 C.3     1  UNL1        0.2527
     37 O         140.9204  142.5228  169.8193 O.3     1  UNL1       -0.4667
     38 O         140.9498  139.5229  169.8155 O.3     1  UNL1       -0.4541
     39 C         142.3868  139.1428  170.0171 C.3     1  UNL1        0.2543
@<TRIPOS>BOND
     1    36    37    1
     2    37    26    1
     3    26    27   ar
     4    27    28   ar
     5    28    29   ar
     6    29    30   ar
     7    30    31   ar
     8    31    32   ar
     9    32    25    1
    10    25    24    1
    11    24     1    1
    12     1     2    1
    13     2     3    1
    14     3     4    1
    15     4     9    1
    16     9    11    1
    17    11    12    1
    18    12    13   ar
    19    13    14   ar
    20    14    15   ar
    21    15    16   ar
    22    16    17   ar
    23    16    18    1
    24    18    19   am
    25    19    20    2
    26    19    21    1
    27    21    22    1
    28     4     5    1
    29     5     6    1
    30     4     7    1
    31     7     8    1
    32    32    33   ar
    33    33    34   ar
    34    34    35   ar
    35    35    38    1
    36    38    39    1
    37    35    26   ar
    38    33    28   ar
    39     6     1    1
    40     8     1    1
    41    17    12   ar
    42    22    15    1
    43     9    10    1
    44    18    23    1
@<TRIPOS>MOLECULE
*****
 39 44 0 0 0
SMALL
GASTEIGER

@<TRIPOS>ATOM
      1 C         144.4432  142.8638  163.1960 C.3     1  UNL1        0.0932
      2 C         144.0240  143.7493  164.3319 C.3     1  UNL1        0.0286
      3 C         142.9190  144.7450  164.1382 C.3     1  UNL1        0.0193
      4 C         142.2332  144.8553  162.8088 C.3     1  UNL1        0.0700
      5 C         142.6524  143.9699  161.6729 C.3     1  UNL1        0.0193
      6 C         143.7574  142.9741  161.8665 C.3     1  UNL1        0.0286
      7 C         142.8334  144.2947  162.8669 C.3     1  UNL1        0.1562
      8 O         143.8326  143.3943  163.0420 O.3     1  UNL1       -0.3572
      9 N         141.1282  145.8511  162.6152 N.3     1  UNL1       -0.2926
     10 H         141.0934  146.0621  161.6179 H       1  UNL1        0.1236
     11 C         139.7291  145.5098  163.0346 C.3     1  UNL1        0.1152
     12 C         139.1656  144.1528  162.7329 C.ar    1  UNL1        0.0765
     13 C         138.6908  143.2725  163.8508 C.ar    1  UNL1        0.0193
     14 C         138.1273  141.9154  163.5492 C.ar    1  UNL1        0.0411
     15 C         138.0387  141.4387  162.1297 C.ar    1  UNL1        0.1708
     16 C         138.5135  142.3190  161.0119 C.ar    1  UNL1        0.1682
     17 N         139.0770  143.6760  161.3135 N.ar    1  UNL1       -0.2304
     18 N         138.4249  141.8423  159.5924 N.am    1  UNL1       -0.2639
     19 C         137.8615  140.4852  159.2908 C.2     1  UNL1        0.2718
     20 O         137.7728  140.0085  157.8714 O.2     1  UNL1       -0.2707
     21 C         137.3866  139.6049  160.4087 C.3     1  UNL1        0.2898
     22 O         137.4752  140.0816  161.8281 O.3     1  UNL1       -0.4628
     23 H         138.7366  142.4200  158.8587 H       1  UNL1        0.1565
     24 C         145.5482  141.8681  163.3896 C.3     1  UNL1        0.0319
     25 C         145.2670  140.5569  164.0616 C.3     1  UNL1        0.0304
     26 C         140.3248  139.8049  166.1254 C.ar    1  UNL1        0.1931
     27 C         140.3887  138.9670  164.8829 C.ar    1  UNL1        0.0623
     28 C         141.6402  138.9455  164.0563 C.ar    1  UNL1        0.1019
     29 N         141.7041  138.1076  162.8138 N.ar    1  UNL1       -0.2422
     30 C         142.9556  138.0861  161.9873 C.ar    1  UNL1        0.0986
     31 C         144.1432  138.9025  162.4032 C.ar    1  UNL1        0.0179
     32 C         144.0794  139.7405  163.6457 C.ar    1  UNL1       -0.0013
     33 C         142.8278  139.7619  164.4722 C.ar    1  UNL1        0.0982
     34 N         142.7639  140.5999  165.7148 N.ar    1  UNL1       -0.2079
     35 C         141.5124  140.6214  166.5413 C.ar    1  UNL1        0.2602
     36 C         138.0261  138.7706  166.7551 C.3     1  UNL1        0.2527
     37 O         139.0732  139.8264  166.9520 O.3     1  UNL1       -0.4667
     38 O         141.4484  141.4593  167.7838 O.3     1  UNL1       -0.4541
     39 C         142.5968  141.4585  168.7489 C.3     1  UNL1        0.2543
@<TRIPOS>BOND
     1    36    37    1
     2    37    26    1
     3    26    27   ar
     4    27    28   ar
     5    28    29   ar
     6    29    30   ar
     7    30    31   ar
     8    31    32   ar
     9    32    25    1
    10    25    24    1
    11    24     1    1
    12     1     2    1
    13     2     3    1
    14     3     4    1
    15     4     9    1
    16     9    11    1
    17    11    12    1
    18    12    13   ar
    19    13    14   ar
    20    14    15   ar
    21    15    16   ar
    22    16    17   ar
    23    16    18    1
    24    18    19   am
    25    19    20    2
    26    19    21    1
    27    21    22    1
    28     4     5    1
    29     5     6    1
    30     4     7    1
    31     7     8    1
    32    32    33   ar
    33    33    34   ar
    34    34    35   ar
    35    35    38    1
    36    38    39    1
    37    35    26   ar
    38    33    28   ar
    39     6     1    1
    40     8     1    1
    41    17    12   ar
    42    22    15    1
    43     9    10    1
    44    18    23    1
@<TRIPOS>MOLECULE
*****
 39 44 0 0 0
SMALL
GASTEIGER

@<TRIPOS>ATOM
      1 C         144.4719  139.7216  163.7096 C.3     1  UNL1        0.0932
      2 C         144.2167  139.2687  162.3026 C.3     1  UNL1        0.0286
      3 C         143.0425  138.3858  162.0002 C.3     1  UNL1        0.0193
      4 C         142.1234  137.9556  163.1048 C.3     1  UNL1        0.0700
      5 C         142.3785  138.4085  164.5119 C.3     1  UNL1        0.0193
      6 C         143.5528  139.2915  164.8143 C.3     1  UNL1        0.0286
      7 C         142.7538  138.4398  163.3193 C.3     1  UNL1        0.1562
      8 O         143.8157  139.2383  163.5928 O.3     1  UNL1       -0.3572
      9 N         140.9491  137.0727  162.8024 N.3     1  UNL1       -0.2926
     10 H         140.7677  136.5256  163.6440 H       1  UNL1        0.1236
     11 C         139.6409  137.6796  162.3901 C.3     1  UNL1        0.1152
     12 C         139.1833  138.9671  163.0088 C.ar    1  UNL1        0.0765
     13 C         138.6219  138.9730  164.3997 C.ar    1  UNL1        0.0193
     14 C         138.1643  140.2606  165.0184 C.ar    1  UNL1        0.0411
     15 C         138.2681  141.5423  164.2461 C.ar    1  UNL1        0.1708
     16 C         138.8295  141.5364  162.8552 C.ar    1  UNL1        0.1682
     17 N         139.2871  140.2489  162.2365 N.ar    1  UNL1       -0.2304
     18 N         138.9333  142.8182  162.0829 N.am    1  UNL1       -0.2639
     19 C         138.4757  144.1057  162.7016 C.2     1  UNL1        0.2718
     20 O         138.5794  145.3874  161.9293 O.2     1  UNL1       -0.2707
     21 C         137.9142  144.1115  164.0926 C.3     1  UNL1        0.2898
     22 O         137.8105  142.8298  164.8648 O.3     1  UNL1       -0.4628
     23 H         139.3017  142.8143  161.1699 H       1  UNL1        0.1565
     24 C         145.6462  140.6046  164.0120 C.3     1  UNL1        0.0319
     25 C         145.6580  142.0265  163.5345 C.3     1  UNL1        0.0304
     26 C         142.8373  143.4331  159.1396 C.ar    1  UNL1        0.1931
     27 C         142.0538  143.9364  160.3155 C.ar    1  UNL1        0.0623
     28 C         142.5631  143.7106  161.7083 C.ar    1  UNL1        0.1019
     29 N         141.7796  144.2140  162.8842 N.ar    1  UNL1       -0.2422
     30 C         142.2889  143.9881  164.2768 C.ar    1  UNL1        0.0986
     31 C         143.5817  143.2590  164.4936 C.ar    1  UNL1        0.0179
     32 C         144.3652  142.7556  163.3177 C.ar    1  UNL1       -0.0013
     33 C         143.8559  142.9815  161.9251 C.ar    1  UNL1        0.0982
     34 N         144.6394  142.4781  160.7491 N.ar    1  UNL1       -0.2079
     35 C         144.1301  142.7039  159.3564 C.ar    1  UNL1        0.2602
     36 C         141.2108  142.8138  157.2106 C.3     1  UNL1        0.2527
     37 O         142.3280  143.6589  157.7469 O.3     1  UNL1       -0.4667
     38 O         144.9136  142.2006  158.1805 O.3     1  UNL1       -0.4541
     39 C         144.6089  140.8523  157.5979 C.3     1  UNL1        0.2543
@<TRIPOS>BOND
     1    36    37    1
     2    37    26    1
     3    26    27   ar
     4    27    28   ar
     5    28    29   ar
     6    29    30   ar
     7    30    31   ar
     8    31    32   ar
     9    32    25    1
    10    25    24    1
    11    24     1    1
    12     1     2    1
    13     2     3    1
    14     3     4    1
    15     4     9    1
    16     9    11    1
    17    11    12    1
    18    12    13   ar
    19    13    14   ar
    20    14    15   ar
    21    15    16   ar
    22    16    17   ar
    23    16    18    1
    24    18    19   am
    25    19    20    2
    26    19    21    1
    27    21    22    1
    28     4     5    1
    29     5     6    1
    30     4     7    1
    31     7     8    1
    32    32    33   ar
    33    33    34   ar
    34    34    35   ar
    35    35    38    1
    36    38    39    1
    37    35    26   ar
    38    33    28   ar
    39     6     1    1
    40     8     1    1
    41    17    12   ar
    42    22    15    1
    43     9    10    1
    44    18    23    1
@<TRIPOS>MOLECULE
*****
 39 44 0 0 0
SMALL
GASTEIGER

@<TRIPOS>ATOM
      1 C         142.5696  144.6011  163.3040 C.3     1  UNL1        0.0932
      2 C         141.3220  144.7681  164.1199 C.3     1  UNL1        0.0286
      3 C         139.9804  144.5135  163.4993 C.3     1  UNL1        0.0193
      4 C         139.8862  144.0920  162.0629 C.3     1  UNL1        0.0700
      5 C         141.1338  143.9249  161.2469 C.3     1  UNL1        0.0193
      6 C         142.4755  144.1795  161.8675 C.3     1  UNL1        0.0286
      7 C         140.6437  144.2200  162.3591 C.3     1  UNL1        0.1562
      8 O         141.8569  144.4502  162.9202 O.3     1  UNL1       -0.3572
      9 N         138.5445  143.8374  161.4424 N.3     1  UNL1       -0.2926
     10 H         138.4380  144.5115  160.6843 H       1  UNL1        0.1236
     11 C         138.2270  142.4879  160.8695 C.3     1  UNL1        0.1152
     12 C         138.4739  141.2513  161.6818 C.ar    1  UNL1        0.0765
     13 C         139.1560  140.0691  161.0597 C.ar    1  UNL1        0.0193
     14 C         139.4029  138.8325  161.8720 C.ar    1  UNL1        0.0411
     15 C         138.9678  138.7781  163.3064 C.ar    1  UNL1        0.1708
     16 C         138.2857  139.9604  163.9286 C.ar    1  UNL1        0.1682
     17 N         138.0388  141.1970  163.1163 N.ar    1  UNL1       -0.2304
     18 N         137.8506  139.9060  165.3631 N.am    1  UNL1       -0.2639
     19 C         138.0975  138.6694  166.1754 C.2     1  UNL1        0.2718
     20 O         137.6623  138.6151  167.6098 O.2     1  UNL1       -0.2707
     21 C         138.7795  137.4871  165.5532 C.3     1  UNL1        0.2898
     22 O         139.2147  137.5415  164.1187 O.3     1  UNL1       -0.4628
     23 H         137.4029  140.6820  165.7714 H       1  UNL1        0.1565
     24 C         143.9113  144.8557  163.9245 C.3     1  UNL1        0.0319
     25 C         144.3991  143.9815  165.0415 C.3     1  UNL1        0.0304
     26 C         141.3665  140.4832  167.8371 C.ar    1  UNL1        0.1931
     27 C         142.1065  139.6697  166.8171 C.ar    1  UNL1        0.0623
     28 C         143.0496  140.3409  165.8631 C.ar    1  UNL1        0.1019
     29 N         143.7896  139.5274  164.8430 N.ar    1  UNL1       -0.2422
     30 C         144.7327  140.1986  163.8891 C.ar    1  UNL1        0.0986
     31 C         144.9358  141.6833  163.9552 C.ar    1  UNL1        0.0179
     32 C         144.1959  142.4968  164.9753 C.ar    1  UNL1       -0.0013
     33 C         143.2528  141.8256  165.9292 C.ar    1  UNL1        0.0982
     34 N         142.5128  142.6391  166.9494 N.ar    1  UNL1       -0.2079
     35 C         141.5697  141.9679  167.9033 C.ar    1  UNL1        0.2602
     36 C         140.7517  139.7529  170.2535 C.3     1  UNL1        0.2527
     37 O         140.4233  139.8120  168.7911 O.3     1  UNL1       -0.4667
     38 O         140.8297  142.7814  168.9235 O.3     1  UNL1       -0.4541
     39 C         141.5774  143.4341  170.0482 C.3     1  UNL1        0.2543
@<TRIPOS>BOND
     1    36    37    1
     2    37    26    1
     3    26    27   ar
     4    27    28   ar
     5    28    29   ar
     6    29    30   ar
     7    30    31   ar
     8    31    32   ar
     9    32    25    1
    10    25    24    1
    11    24     1    1
    12     1     2    1
    13     2     3    1
    14     3     4    1
    15     4     9    1
    16     9    11    1
    17    11    12    1
    18    12    13   ar
    19    13    14   ar
    20    14    15   ar
    21    15    16   ar
    22    16    17   ar
    23    16    18    1
    24    18    19   am
    25    19    20    2
    26    19    21    1
    27    21    22    1
    28     4     5    1
    29     5     6    1
    30     4     7    1
    31     7     8    1
    32    32    33   ar
    33    33    34   ar
    34    34    35   ar
    35    35    38    1
    36    38    39    1
    37    35    26   ar
    38    33    28   ar
    39     6     1    1
    40     8     1    1
    41    17    12   ar
    42    22    15    1
    43     9    10    1
    44    18    23    1
@<TRIPOS>MOLECULE
*****
 39 44 0 0 0
SMALL
GASTEIGER

@<TRIPOS>ATOM
      1 C         143.2680  138.7382  163.6159 C.3     1  UNL1        0.0932
      2 C         142.2606  138.1337  164.5484 C.3     1  UNL1        0.0286
      3 C         140.9408  137.6560  164.0192 C.3     1  UNL1        0.0193
      4 C         140.6285  137.7828  162.5576 C.3     1  UNL1        0.0700
      5 C         141.6360  138.3874  161.6251 C.3     1  UNL1        0.0193
      6 C         142.9558  138.8651  162.1542 C.3     1  UNL1        0.0286
      7 C         141.3651  138.0588  162.8010 C.3     1  UNL1        0.1562
      8 O         142.5585  138.4907  163.2795 O.3     1  UNL1       -0.3572
      9 N         139.3087  137.3051  162.0284 N.3     1  UNL1       -0.2926
     10 H         139.1210  136.4066  162.4731 H       1  UNL1        0.1236
     11 C         138.0791  138.1443  162.2119 C.3     1  UNL1        0.1152
     12 C         138.1697  139.6385  162.1171 C.ar    1  UNL1        0.0765
     13 C         138.3373  140.2964  160.7795 C.ar    1  UNL1        0.0193
     14 C         138.4280  141.7906  160.6847 C.ar    1  UNL1        0.0411
     15 C         138.3510  142.6270  161.9274 C.ar    1  UNL1        0.1708
     16 C         138.1834  141.9692  163.2650 C.ar    1  UNL1        0.1682
     17 N         138.0928  140.4749  163.3598 N.ar    1  UNL1       -0.2304
     18 N         138.1064  142.8056  164.5078 N.am    1  UNL1       -0.2639
     19 C         138.1971  144.2998  164.4130 C.2     1  UNL1        0.2718
     20 O         138.1202  145.1362  165.6558 O.2     1  UNL1       -0.2707
     21 C         138.3647  144.9577  163.0754 C.3     1  UNL1        0.2898
     22 O         138.4417  144.1213  161.8326 O.3     1  UNL1       -0.4628
     23 H         137.9964  142.3738  165.3857 H       1  UNL1        0.1565
     24 C         144.5878  139.2159  164.1451 C.3     1  UNL1        0.0319
     25 C         144.7866  140.6679  164.4645 C.3     1  UNL1        0.0304
     26 C         140.9356  141.6597  168.1300 C.ar    1  UNL1        0.1931
     27 C         140.6473  142.5641  166.9686 C.ar    1  UNL1        0.0623
     28 C         141.5380  142.5423  165.7618 C.ar    1  UNL1        0.1019
     29 N         141.2497  143.4467  164.6004 N.ar    1  UNL1       -0.2422
     30 C         142.1403  143.4248  163.3937 C.ar    1  UNL1        0.0986
     31 C         143.3193  142.4986  163.3484 C.ar    1  UNL1        0.0179
     32 C         143.6076  141.5942  164.5098 C.ar    1  UNL1       -0.0013
     33 C         142.7170  141.6160  165.7165 C.ar    1  UNL1        0.0982
     34 N         143.0053  140.7116  166.8780 N.ar    1  UNL1       -0.2079
     35 C         142.1146  140.7334  168.0847 C.ar    1  UNL1        0.2602
     36 C         139.1661  140.5048  169.6416 C.3     1  UNL1        0.2527
     37 O         140.0449  141.6815  169.3368 O.3     1  UNL1       -0.4667
     38 O         142.4029  139.8290  169.2461 O.3     1  UNL1       -0.4541
     39 C         143.0641  140.3759  170.4765 C.3     1  UNL1        0.2543
@<TRIPOS>BOND
     1    36    37    1
     2    37    26    1
     3    26    27   ar
     4    27    28   ar
     5    28    29   ar
     6    29    30   ar
     7    30    31   ar
     8    31    32   ar
     9    32    25    1
    10    25    24    1
    11    24     1    1
    12     1     2    1
    13     2     3    1
    14     3     4    1
    15     4     9    1
    16     9    11    1
    17    11    12    1
    18    12    13   ar
    19    13    14   ar
    20    14    15   ar
    21    15    16   ar
    22    16    17   ar
    23    16    18    1
    24    18    19   am
    25    19    20    2
    26    19    21    1
    27    21    22    1
    28     4     5    1
    29     5     6    1
    30     4     7    1
    31     7     8    1
    32    32    33   ar
    33    33    34   ar
    34    34    35   ar
    35    35    38    1
    36    38    39    1
    37    35    26   ar
    38    33    28   ar
    39     6     1    1
    40     8     1    1
    41    17    12   ar
    42    22    15    1
    43     9    10    1
    44    18    23    1
