@<TRIPOS>MOLECULE
*****
 38 42 0 0 0
SMALL
GASTEIGER

@<TRIPOS>ATOM
      1 O         143.7961  144.1451  162.9468 O.3     1  UNL1       -0.4529
      2 N         141.6000  141.8353  166.8230 N.ar    1  UNL1       -0.2105
      3 N         143.0152  141.3697  166.6481 N.ar    1  UNL1       -0.1619
      4 C         143.6023  142.1005  165.4772 C.ar    1  UNL1        0.1283
      5 C         142.5499  143.0178  164.9283 C.ar    1  UNL1        0.1098
      6 C         142.5586  143.9812  163.7786 C.ar    1  UNL1        0.2312
      7 N         141.3299  144.7806  163.4606 N.ar    1  UNL1       -0.1892
      8 C         140.0925  144.6166  164.2924 C.ar    1  UNL1        0.2029
      9 N         140.0838  143.6533  165.4421 N.ar    1  UNL1       -0.2046
     10 C         141.3125  142.8539  165.7601 C.ar    1  UNL1        0.1715
     11 C         139.7496  140.1886  167.6069 C.ar    1  UNL1        0.0870
     12 C         138.7904  139.7182  168.6598 C.ar    1  UNL1        0.0119
     13 C         138.7223  140.4240  169.9816 C.ar    1  UNL1        0.0017
     14 C         139.6134  141.6002  170.2505 C.ar    1  UNL1        0.0130
     15 C         140.5727  142.0706  169.1976 C.ar    1  UNL1        0.0760
     16 CL        141.4638  143.2469  169.4666 Cl      1  UNL1       -0.0807
     17 C         140.6408  141.3649  167.8758 C.ar    1  UNL1        0.1045
     18 N         139.8857  138.7770  164.9634 N.1     1  UNL1       -0.1908
     19 C         139.8177  139.4828  166.2852 C.1     1  UNL1        0.1020
     20 C         144.0454  143.2298  161.7849 C.3     1  UNL1        0.2588
     21 C         143.3867  143.4980  160.4641 C.2     1  UNL1        0.2689
     22 O         143.8929  142.8245  159.2231 O.2     1  UNL1       -0.2708
     23 N         142.2219  144.4397  160.3845 N.am    1  UNL1       -0.2664
     24 H         141.8897  144.8818  161.1990 H       1  UNL1        0.1564
     25 C         141.5632  144.7079  159.0638 C.ar    1  UNL1        0.1344
     26 C         140.3330  143.9449  158.6706 C.ar    1  UNL1        0.0368
     27 C         139.6743  144.2131  157.3500 C.ar    1  UNL1        0.0341
     28 C         140.2458  145.2443  156.4225 C.ar    1  UNL1        0.1593
     29 F         139.5871  145.5125  155.1018 F       1  UNL1       -0.2025
     30 C         141.4759  146.0072  156.8157 C.ar    1  UNL1        0.1298
     31 N         142.1346  145.7390  158.1364 N.ar    1  UNL1       -0.2267
     32 C         144.9534  142.0465  161.9436 C.3     1  UNL1        0.1261
     33 N         144.3931  140.6567  161.8750 N.3     1  UNL1       -0.2650
     34 C         143.9105  139.7609  160.7728 C.3     1  UNL1        0.1033
     35 C         143.6008  138.6913  161.7779 C.3     1  UNL1        0.1423
     36 O         143.0406  137.3016  161.7093 O.3     1  UNL1       -0.3816
     37 C         144.0834  139.5871  162.8799 C.3     1  UNL1        0.1033
     38 H         142.8453  137.0769  160.7861 H       1  UNL1        0.2105
@<TRIPOS>BOND
     1    18    19    3
     2    19    11    1
     3    11    12   ar
     4    12    13   ar
     5    13    14   ar
     6    14    15   ar
     7    15    16    1
     8    15    17   ar
     9    17     2    1
    10     2     3   ar
    11     3     4   ar
    12     4     5   ar
    13     5     6   ar
    14     6     1    1
    15     1    20    1
    16    20    32    1
    17    32    33    1
    18    33    34    1
    19    34    35    1
    20    35    36    1
    21    35    37    1
    22    20    21    1
    23    21    22    2
    24    21    23   am
    25    23    25    1
    26    25    26   ar
    27    26    27   ar
    28    27    28   ar
    29    28    29    1
    30    28    30   ar
    31    30    31   ar
    32     6     7   ar
    33     7     8   ar
    34     8     9   ar
    35     9    10   ar
    36    17    11   ar
    37    10     2   ar
    38    10     5   ar
    39    37    33    1
    40    31    25   ar
    41    36    38    1
    42    23    24    1
@<TRIPOS>MOLECULE
*****
 38 42 0 0 0
SMALL
GASTEIGER

@<TRIPOS>ATOM
      1 O         140.8073  145.5777  162.8831 O.3     1  UNL1       -0.4529
      2 N         141.1435  142.2701  166.6421 N.ar    1  UNL1       -0.2105
      3 N         139.7130  142.6189  166.3560 N.ar    1  UNL1       -0.1619
      4 C         139.6935  143.6065  165.2272 C.ar    1  UNL1        0.1283
      5 C         141.1121  143.8681  164.8157 C.ar    1  UNL1        0.1098
      6 C         141.7035  144.7517  163.7576 C.ar    1  UNL1        0.2312
      7 N         143.1911  144.8095  163.5741 N.ar    1  UNL1       -0.1892
      8 C         144.0872  143.9836  164.4486 C.ar    1  UNL1        0.2029
      9 N         143.4958  143.0999  165.5066 N.ar    1  UNL1       -0.2046
     10 C         142.0082  143.0422  165.6902 C.ar    1  UNL1        0.1715
     11 C         141.5058  141.6791  169.1460 C.ar    1  UNL1        0.0870
     12 C         141.9872  140.7257  170.1992 C.ar    1  UNL1        0.0119
     13 C         142.5878  139.4099  169.8018 C.ar    1  UNL1        0.0017
     14 C         142.7069  139.0475  168.3511 C.ar    1  UNL1        0.0130
     15 C         142.2255  140.0009  167.2979 C.ar    1  UNL1        0.0760
     16 CL        142.3447  139.6385  165.8472 Cl      1  UNL1       -0.0807
     17 C         141.6250  141.3167  167.6953 C.ar    1  UNL1        0.1045
     18 N         140.3047  144.3107  169.9410 N.1     1  UNL1       -0.1908
     19 C         140.9053  142.9949  169.5435 C.1     1  UNL1        0.1020
     20 C         140.2587  144.9991  161.6126 C.3     1  UNL1        0.2588
     21 C         139.4485  143.7373  161.6515 C.2     1  UNL1        0.2689
     22 O         137.9551  143.8084  161.7728 O.2     1  UNL1       -0.2708
     23 N         140.1317  142.4045  161.5691 N.am    1  UNL1       -0.2664
     24 H         141.1119  142.3579  161.4895 H       1  UNL1        0.1564
     25 C         139.3216  141.1427  161.6080 C.ar    1  UNL1        0.1344
     26 C         139.3994  140.2380  162.8019 C.ar    1  UNL1        0.0368
     27 C         138.5892  138.9762  162.8409 C.ar    1  UNL1        0.0341
     28 C         137.7013  138.6191  161.6858 C.ar    1  UNL1        0.1593
     29 F         136.8911  137.3573  161.7247 F       1  UNL1       -0.2025
     30 C         137.6235  139.5238  160.4919 C.ar    1  UNL1        0.1298
     31 N         138.4337  140.7857  160.4530 N.ar    1  UNL1       -0.2267
     32 C         140.5202  145.6824  160.3031 C.3     1  UNL1        0.1261
     33 N         141.4628  145.0675  159.3114 N.3     1  UNL1       -0.2650
     34 C         142.3527  143.8599  159.3016 C.3     1  UNL1        0.1033
     35 C         142.7958  144.1979  157.9090 C.3     1  UNL1        0.1423
     36 O         143.7384  143.5830  156.9173 O.3     1  UNL1       -0.3816
     37 C         141.9060  145.4053  157.9188 C.3     1  UNL1        0.1033
     38 H         144.1341  142.7842  157.2997 H       1  UNL1        0.2105
@<TRIPOS>BOND
     1    18    19    3
     2    19    11    1
     3    11    12   ar
     4    12    13   ar
     5    13    14   ar
     6    14    15   ar
     7    15    16    1
     8    15    17   ar
     9    17     2    1
    10     2     3   ar
    11     3     4   ar
    12     4     5   ar
    13     5     6   ar
    14     6     1    1
    15     1    20    1
    16    20    32    1
    17    32    33    1
    18    33    34    1
    19    34    35    1
    20    35    36    1
    21    35    37    1
    22    20    21    1
    23    21    22    2
    24    21    23   am
    25    23    25    1
    26    25    26   ar
    27    26    27   ar
    28    27    28   ar
    29    28    29    1
    30    28    30   ar
    31    30    31   ar
    32     6     7   ar
    33     7     8   ar
    34     8     9   ar
    35     9    10   ar
    36    17    11   ar
    37    10     2   ar
    38    10     5   ar
    39    37    33    1
    40    31    25   ar
    41    36    38    1
    42    23    24    1
@<TRIPOS>MOLECULE
*****
 38 42 0 0 0
SMALL
GASTEIGER

@<TRIPOS>ATOM
      1 O         139.1229  138.0236  160.8565 O.3     1  UNL1       -0.4529
      2 N         139.1790  140.1652  165.3945 N.ar    1  UNL1       -0.2105
      3 N         138.0632  140.7109  164.5536 N.ar    1  UNL1       -0.1619
      4 C         138.1108  140.0267  163.2196 C.ar    1  UNL1        0.1283
      5 C         139.2561  139.0581  163.2361 C.ar    1  UNL1        0.1098
      6 C         139.7831  138.1092  162.2008 C.ar    1  UNL1        0.2312
      7 N         140.9702  137.2459  162.5096 N.ar    1  UNL1       -0.1892
      8 C         141.6303  137.3314  163.8538 C.ar    1  UNL1        0.2029
      9 N         141.1034  138.2803  164.8891 N.ar    1  UNL1       -0.2046
     10 C         139.9163  139.1436  164.5803 C.ar    1  UNL1        0.1715
     11 C         138.8489  139.8633  167.9538 C.ar    1  UNL1        0.0870
     12 C         139.1709  140.2680  169.3618 C.ar    1  UNL1        0.0119
     13 C         140.1452  141.3792  169.6186 C.ar    1  UNL1        0.0017
     14 C         140.7974  142.0857  168.4673 C.ar    1  UNL1        0.0130
     15 C         140.4754  141.6810  167.0593 C.ar    1  UNL1        0.0760
     16 CL        141.1277  142.3876  165.9081 Cl      1  UNL1       -0.0807
     17 C         139.5011  140.5698  166.8025 C.ar    1  UNL1        0.1045
     18 N         136.9002  137.6409  167.4403 N.1     1  UNL1       -0.1908
     19 C         137.8745  138.7521  167.6971 C.1     1  UNL1        0.1020
     20 C         139.4648  139.0195  159.7883 C.3     1  UNL1        0.2588
     21 C         139.2928  140.4869  160.0481 C.2     1  UNL1        0.2689
     22 O         138.0335  141.1814  159.6216 O.2     1  UNL1       -0.2708
     23 N         140.3800  141.2596  160.7343 N.am    1  UNL1       -0.2664
     24 H         141.2065  140.8037  161.0142 H       1  UNL1        0.1564
     25 C         140.2080  142.7268  160.9941 C.ar    1  UNL1        0.1344
     26 C         139.7103  143.1990  162.3281 C.ar    1  UNL1        0.0368
     27 C         139.5383  144.6663  162.5879 C.ar    1  UNL1        0.0341
     28 C         139.8640  145.6614  161.5137 C.ar    1  UNL1        0.1593
     29 F         139.6920  147.1286  161.7735 F       1  UNL1       -0.2025
     30 C         140.3616  145.1892  160.1798 C.ar    1  UNL1        0.1298
     31 N         140.5336  143.7218  159.9200 N.ar    1  UNL1       -0.2267
     32 C         139.9788  138.5482  158.4603 C.3     1  UNL1        0.1261
     33 N         141.3569  138.9331  158.0099 N.3     1  UNL1       -0.2650
     34 C         142.0055  140.2044  157.5483 C.3     1  UNL1        0.1033
     35 C         143.3058  139.4773  157.3731 C.3     1  UNL1        0.1423
     36 O         144.6838  139.8622  156.9227 O.3     1  UNL1       -0.3816
     37 C         142.6572  138.2061  157.8347 C.3     1  UNL1        0.1033
     38 H         144.6999  140.8066  156.7022 H       1  UNL1        0.2105
@<TRIPOS>BOND
     1    18    19    3
     2    19    11    1
     3    11    12   ar
     4    12    13   ar
     5    13    14   ar
     6    14    15   ar
     7    15    16    1
     8    15    17   ar
     9    17     2    1
    10     2     3   ar
    11     3     4   ar
    12     4     5   ar
    13     5     6   ar
    14     6     1    1
    15     1    20    1
    16    20    32    1
    17    32    33    1
    18    33    34    1
    19    34    35    1
    20    35    36    1
    21    35    37    1
    22    20    21    1
    23    21    22    2
    24    21    23   am
    25    23    25    1
    26    25    26   ar
    27    26    27   ar
    28    27    28   ar
    29    28    29    1
    30    28    30   ar
    31    30    31   ar
    32     6     7   ar
    33     7     8   ar
    34     8     9   ar
    35     9    10   ar
    36    17    11   ar
    37    10     2   ar
    38    10     5   ar
    39    37    33    1
    40    31    25   ar
    41    36    38    1
    42    23    24    1
@<TRIPOS>MOLECULE
*****
 38 42 0 0 0
SMALL
GASTEIGER

@<TRIPOS>ATOM
      1 O         139.8695  137.6554  161.6159 O.3     1  UNL1       -0.4529
      2 N         142.8261  140.0561  158.3483 N.ar    1  UNL1       -0.2105
      3 N         141.3905  140.1078  157.9167 N.ar    1  UNL1       -0.1619
      4 C         140.5729  139.3732  158.9374 C.ar    1  UNL1        0.1283
      5 C         141.5032  138.8676  159.9999 C.ar    1  UNL1        0.1098
      6 C         141.2622  138.0774  161.2519 C.ar    1  UNL1        0.2312
      7 N         142.4137  137.7092  162.1398 N.ar    1  UNL1       -0.1892
      8 C         143.8062  138.1312  161.7757 C.ar    1  UNL1        0.2029
      9 N         144.0473  138.9215  160.5237 N.ar    1  UNL1       -0.2046
     10 C         142.8958  139.2896  159.6358 C.ar    1  UNL1        0.1715
     11 C         144.5957  141.9438  158.1136 C.ar    1  UNL1        0.0870
     12 C         145.7577  142.5519  157.3856 C.ar    1  UNL1        0.0119
     13 C         146.3122  141.8803  156.1643 C.ar    1  UNL1        0.0017
     14 C         145.7046  140.6006  155.6711 C.ar    1  UNL1        0.0130
     15 C         144.5426  139.9926  156.3991 C.ar    1  UNL1        0.0760
     16 CL        143.9351  138.7129  155.9058 Cl      1  UNL1       -0.0807
     17 C         143.9881  140.6641  157.6203 C.ar    1  UNL1        0.1045
     18 N         143.4869  143.2871  160.5561 N.1     1  UNL1       -0.1908
     19 C         144.0413  142.6155  159.3348 C.1     1  UNL1        0.1020
     20 C         139.0471  138.5021  162.5415 C.3     1  UNL1        0.2588
     21 C         139.3967  138.5779  163.9983 C.2     1  UNL1        0.2689
     22 O         139.0191  137.4560  164.9196 O.2     1  UNL1       -0.2708
     23 N         140.1238  139.7756  164.5337 N.am    1  UNL1       -0.2664
     24 H         140.3716  140.5120  163.9290 H       1  UNL1        0.1564
     25 C         140.4734  139.8515  165.9904 C.ar    1  UNL1        0.1344
     26 C         141.8837  139.6035  166.4371 C.ar    1  UNL1        0.0368
     27 C         142.2334  139.6793  167.8938 C.ar    1  UNL1        0.0341
     28 C         141.1727  140.0032  168.9038 C.ar    1  UNL1        0.1593
     29 F         141.5223  140.0791  170.3605 F       1  UNL1       -0.2025
     30 C         139.7624  140.2512  168.4571 C.ar    1  UNL1        0.1298
     31 N         139.4128  140.1753  167.0003 N.ar    1  UNL1       -0.2267
     32 C         137.8750  139.2729  162.0104 C.3     1  UNL1        0.1261
     33 N         137.8376  140.7666  162.1428 N.3     1  UNL1       -0.2650
     34 C         138.2732  141.9186  161.2865 C.3     1  UNL1        0.1033
     35 C         137.7846  142.8790  162.3300 C.3     1  UNL1        0.1423
     36 O         137.7472  144.3726  162.4624 O.3     1  UNL1       -0.3816
     37 C         137.3491  141.7271  163.1863 C.3     1  UNL1        0.1033
     38 H         138.1375  144.7772  161.6719 H       1  UNL1        0.2105
@<TRIPOS>BOND
     1    18    19    3
     2    19    11    1
     3    11    12   ar
     4    12    13   ar
     5    13    14   ar
     6    14    15   ar
     7    15    16    1
     8    15    17   ar
     9    17     2    1
    10     2     3   ar
    11     3     4   ar
    12     4     5   ar
    13     5     6   ar
    14     6     1    1
    15     1    20    1
    16    20    32    1
    17    32    33    1
    18    33    34    1
    19    34    35    1
    20    35    36    1
    21    35    37    1
    22    20    21    1
    23    21    22    2
    24    21    23   am
    25    23    25    1
    26    25    26   ar
    27    26    27   ar
    28    27    28   ar
    29    28    29    1
    30    28    30   ar
    31    30    31   ar
    32     6     7   ar
    33     7     8   ar
    34     8     9   ar
    35     9    10   ar
    36    17    11   ar
    37    10     2   ar
    38    10     5   ar
    39    37    33    1
    40    31    25   ar
    41    36    38    1
    42    23    24    1
@<TRIPOS>MOLECULE
*****
 38 42 0 0 0
SMALL
GASTEIGER

@<TRIPOS>ATOM
      1 O         141.8310  137.6594  162.2695 O.3     1  UNL1       -0.4529
      2 N         141.7487  140.5962  166.3378 N.ar    1  UNL1       -0.2105
      3 N         142.9753  140.8507  165.5128 N.ar    1  UNL1       -0.1619
      4 C         142.9293  139.9411  164.3210 C.ar    1  UNL1        0.1283
      5 C         141.6741  139.1243  164.4095 C.ar    1  UNL1        0.1098
      6 C         141.1014  138.0643  163.5160 C.ar    1  UNL1        0.2312
      7 N         139.7991  137.4091  163.8690 N.ar    1  UNL1       -0.1892
      8 C         139.0695  137.8140  165.1155 C.ar    1  UNL1        0.2029
      9 N         139.6422  138.8741  166.0090 N.ar    1  UNL1       -0.2046
     10 C         140.9446  139.5292  165.6559 C.ar    1  UNL1        0.1715
     11 C         140.6563  142.5955  167.5866 C.ar    1  UNL1        0.0870
     12 C         140.2969  143.2866  168.8684 C.ar    1  UNL1        0.0119
     13 C         140.6706  142.6694  170.1835 C.ar    1  UNL1        0.0017
     14 C         141.4036  141.3612  170.2167 C.ar    1  UNL1        0.0130
     15 C         141.7630  140.6701  168.9348 C.ar    1  UNL1        0.0760
     16 CL        142.4960  139.3618  168.9681 Cl      1  UNL1       -0.0807
     17 C         141.3893  141.2872  167.6197 C.ar    1  UNL1        0.1045
     18 N         139.9090  143.8299  164.9564 N.1     1  UNL1       -0.1908
     19 C         140.2826  143.2127  166.2715 C.1     1  UNL1        0.1020
     20 C         141.5683  138.3786  160.9796 C.3     1  UNL1        0.2588
     21 C         142.7054  138.9934  160.2186 C.2     1  UNL1        0.2689
     22 O         144.1029  138.4867  160.4190 O.2     1  UNL1       -0.2708
     23 N         142.4450  140.1151  159.2573 N.am    1  UNL1       -0.2664
     24 H         141.5277  140.4477  159.1259 H       1  UNL1        0.1564
     25 C         143.5820  140.7299  158.4964 C.ar    1  UNL1        0.1344
     26 C         144.1602  142.0407  158.9410 C.ar    1  UNL1        0.0368
     27 C         145.2972  142.6555  158.1800 C.ar    1  UNL1        0.0341
     28 C         145.8561  141.9596  156.9744 C.ar    1  UNL1        0.1593
     29 F         146.9931  142.5745  156.2135 F       1  UNL1       -0.2025
     30 C         145.2779  140.6489  156.5298 C.ar    1  UNL1        0.1298
     31 N         144.1408  140.0340  157.2908 N.ar    1  UNL1       -0.2267
     32 C         140.1686  138.4829  160.4507 C.3     1  UNL1        0.1261
     33 N         139.1495  139.3048  161.1828 N.3     1  UNL1       -0.2650
     34 C         137.6983  139.1375  161.5238 C.3     1  UNL1        0.1033
     35 C         137.7083  140.4670  162.2182 C.3     1  UNL1        0.1423
     36 O         136.6892  141.2889  162.9503 O.3     1  UNL1       -0.3816
     37 C         139.1593  140.6343  161.8772 C.3     1  UNL1        0.1033
     38 H         135.8396  140.8208  162.9557 H       1  UNL1        0.2105
@<TRIPOS>BOND
     1    18    19    3
     2    19    11    1
     3    11    12   ar
     4    12    13   ar
     5    13    14   ar
     6    14    15   ar
     7    15    16    1
     8    15    17   ar
     9    17     2    1
    10     2     3   ar
    11     3     4   ar
    12     4     5   ar
    13     5     6   ar
    14     6     1    1
    15     1    20    1
    16    20    32    1
    17    32    33    1
    18    33    34    1
    19    34    35    1
    20    35    36    1
    21    35    37    1
    22    20    21    1
    23    21    22    2
    24    21    23   am
    25    23    25    1
    26    25    26   ar
    27    26    27   ar
    28    27    28   ar
    29    28    29    1
    30    28    30   ar
    31    30    31   ar
    32     6     7   ar
    33     7     8   ar
    34     8     9   ar
    35     9    10   ar
    36    17    11   ar
    37    10     2   ar
    38    10     5   ar
    39    37    33    1
    40    31    25   ar
    41    36    38    1
    42    23    24    1
@<TRIPOS>MOLECULE
*****
 38 42 0 0 0
SMALL
GASTEIGER

@<TRIPOS>ATOM
      1 O         139.0203  138.5114  160.8938 O.3     1  UNL1       -0.4529
      2 N         139.2999  140.4885  165.4977 N.ar    1  UNL1       -0.2105
      3 N         138.3742  141.2824  164.6243 N.ar    1  UNL1       -0.1619
      4 C         138.3427  140.6339  163.2721 C.ar    1  UNL1        0.1283
      5 C         139.2490  139.4392  163.3098 C.ar    1  UNL1        0.1098
      6 C         139.6119  138.4215  162.2694 C.ar    1  UNL1        0.2312
      7 N         140.5664  137.3139  162.6043 N.ar    1  UNL1       -0.1892
      8 C         141.1579  137.2241  163.9798 C.ar    1  UNL1        0.2029
      9 N         140.7950  138.2418  165.0203 N.ar    1  UNL1       -0.2046
     10 C         139.8405  139.3493  164.6853 C.ar    1  UNL1        0.1715
     11 C         138.9821  139.9857  168.0268 C.ar    1  UNL1        0.0870
     12 C         139.3097  140.2794  169.4608 C.ar    1  UNL1        0.0119
     13 C         140.2827  141.3695  169.7998 C.ar    1  UNL1        0.0017
     14 C         140.9280  142.1660  168.7048 C.ar    1  UNL1        0.0130
     15 C         140.6004  141.8723  167.2707 C.ar    1  UNL1        0.0760
     16 CL        141.2459  142.6688  166.1757 Cl      1  UNL1       -0.0807
     17 C         139.6275  140.7822  166.9317 C.ar    1  UNL1        0.1045
     18 N         137.0362  137.8054  167.3489 N.1     1  UNL1       -0.1908
     19 C         138.0092  138.8956  167.6878 C.1     1  UNL1        0.1020
     20 C         139.6625  139.3843  159.8568 C.3     1  UNL1        0.2588
     21 C         138.9110  139.7440  158.6094 C.2     1  UNL1        0.2689
     22 O         139.0122  138.8700  157.3945 O.2     1  UNL1       -0.2708
     23 N         138.0584  140.9777  158.5769 N.am    1  UNL1       -0.2664
     24 H         137.9920  141.5513  159.3742 H       1  UNL1        0.1564
     25 C         137.3070  141.3374  157.3295 C.ar    1  UNL1        0.1344
     26 C         137.7057  142.5462  156.5360 C.ar    1  UNL1        0.0368
     27 C         136.9543  142.9059  155.2886 C.ar    1  UNL1        0.0341
     28 C         135.8040  142.0568  154.8348 C.ar    1  UNL1        0.1593
     29 F         135.0526  142.4165  153.5875 F       1  UNL1       -0.2025
     30 C         135.4053  140.8479  155.6283 C.ar    1  UNL1        0.1298
     31 N         136.1568  140.4883  156.8757 N.ar    1  UNL1       -0.2267
     32 C         141.0562  139.8975  160.0671 C.3     1  UNL1        0.1261
     33 N         141.2993  141.3708  160.2095 N.3     1  UNL1       -0.2650
     34 C         140.9647  142.4062  161.2421 C.3     1  UNL1        0.1033
     35 C         141.6432  143.4544  160.4110 C.3     1  UNL1        0.1423
     36 O         141.8864  144.9277  160.5534 O.3     1  UNL1       -0.3816
     37 C         141.9778  142.4191  159.3784 C.3     1  UNL1        0.1033
     38 H         141.5020  145.2396  161.3876 H       1  UNL1        0.2105
@<TRIPOS>BOND
     1    18    19    3
     2    19    11    1
     3    11    12   ar
     4    12    13   ar
     5    13    14   ar
     6    14    15   ar
     7    15    16    1
     8    15    17   ar
     9    17     2    1
    10     2     3   ar
    11     3     4   ar
    12     4     5   ar
    13     5     6   ar
    14     6     1    1
    15     1    20    1
    16    20    32    1
    17    32    33    1
    18    33    34    1
    19    34    35    1
    20    35    36    1
    21    35    37    1
    22    20    21    1
    23    21    22    2
    24    21    23   am
    25    23    25    1
    26    25    26   ar
    27    26    27   ar
    28    27    28   ar
    29    28    29    1
    30    28    30   ar
    31    30    31   ar
    32     6     7   ar
    33     7     8   ar
    34     8     9   ar
    35     9    10   ar
    36    17    11   ar
    37    10     2   ar
    38    10     5   ar
    39    37    33    1
    40    31    25   ar
    41    36    38    1
    42    23    24    1
@<TRIPOS>MOLECULE
*****
 38 42 0 0 0
SMALL
GASTEIGER

@<TRIPOS>ATOM
      1 O         143.8358  143.7884  162.6372 O.3     1  UNL1       -0.4529
      2 N         141.9914  141.5599  166.7378 N.ar    1  UNL1       -0.2105
      3 N         143.3382  141.0044  166.3808 N.ar    1  UNL1       -0.1619
      4 C         143.8221  141.7156  165.1520 C.ar    1  UNL1        0.1283
      5 C         142.7742  142.7108  164.7496 C.ar    1  UNL1        0.1098
      6 C         142.7043  143.6921  163.6173 C.ar    1  UNL1        0.2312
      7 N         141.5029  144.5773  163.4652 N.ar    1  UNL1       -0.1892
      8 C         140.3715  144.4810  164.4452 C.ar    1  UNL1        0.2029
      9 N         140.4415  143.4996  165.5775 N.ar    1  UNL1       -0.2046
     10 C         141.6428  142.6145  165.7297 C.ar    1  UNL1        0.1715
     11 C         141.5887  141.4270  169.3010 C.ar    1  UNL1        0.0870
     12 C         140.7395  141.0025  170.4623 C.ar    1  UNL1        0.0119
     13 C         139.4437  140.2864  170.2217 C.ar    1  UNL1        0.0017
     14 C         138.9970  139.9948  168.8197 C.ar    1  UNL1        0.0130
     15 C         139.8463  140.4193  167.6585 C.ar    1  UNL1        0.0760
     16 CL        139.3996  140.1277  166.2565 Cl      1  UNL1       -0.0807
     17 C         141.1421  141.1354  167.8991 C.ar    1  UNL1        0.1045
     18 N         144.1804  142.8592  169.7825 N.1     1  UNL1       -0.1908
     19 C         142.8846  142.1431  169.5418 C.1     1  UNL1        0.1020
     20 C         143.9035  142.8428  161.4748 C.3     1  UNL1        0.2588
     21 C         143.2382  143.1991  160.1784 C.2     1  UNL1        0.2689
     22 O         143.5443  142.4138  158.9376 O.2     1  UNL1       -0.2708
     23 N         142.2668  144.3407  160.1229 N.am    1  UNL1       -0.2664
     24 H         142.0659  144.8561  160.9373 H       1  UNL1        0.1564
     25 C         141.6015  144.6970  158.8266 C.ar    1  UNL1        0.1344
     26 C         140.3192  144.0260  158.4324 C.ar    1  UNL1        0.0368
     27 C         139.6539  144.3823  157.1361 C.ar    1  UNL1        0.0341
     28 C         140.2709  145.4097  156.2340 C.ar    1  UNL1        0.1593
     29 F         139.6057  145.7661  154.9377 F       1  UNL1       -0.2025
     30 C         141.5532  146.0808  156.6282 C.ar    1  UNL1        0.1298
     31 N         142.2185  145.7244  157.9246 N.ar    1  UNL1       -0.2267
     32 C         144.6365  141.5410  161.6086 C.3     1  UNL1        0.1261
     33 N         143.8723  140.2509  161.6512 N.3     1  UNL1       -0.2650
     34 C         142.5966  139.7945  162.2949 C.3     1  UNL1        0.1033
     35 C         142.7916  138.4265  161.7113 C.3     1  UNL1        0.1423
     36 O         142.0275  137.1365  161.7538 O.3     1  UNL1       -0.3816
     37 C         144.0672  138.8829  161.0676 C.3     1  UNL1        0.1033
     38 H         141.2287  137.2514  162.2921 H       1  UNL1        0.2105
@<TRIPOS>BOND
     1    18    19    3
     2    19    11    1
     3    11    12   ar
     4    12    13   ar
     5    13    14   ar
     6    14    15   ar
     7    15    16    1
     8    15    17   ar
     9    17     2    1
    10     2     3   ar
    11     3     4   ar
    12     4     5   ar
    13     5     6   ar
    14     6     1    1
    15     1    20    1
    16    20    32    1
    17    32    33    1
    18    33    34    1
    19    34    35    1
    20    35    36    1
    21    35    37    1
    22    20    21    1
    23    21    22    2
    24    21    23   am
    25    23    25    1
    26    25    26   ar
    27    26    27   ar
    28    27    28   ar
    29    28    29    1
    30    28    30   ar
    31    30    31   ar
    32     6     7   ar
    33     7     8   ar
    34     8     9   ar
    35     9    10   ar
    36    17    11   ar
    37    10     2   ar
    38    10     5   ar
    39    37    33    1
    40    31    25   ar
    41    36    38    1
    42    23    24    1
@<TRIPOS>MOLECULE
*****
 38 42 0 0 0
SMALL
GASTEIGER

@<TRIPOS>ATOM
      1 O         139.7238  139.2195  163.1796 O.3     1  UNL1       -0.4529
      2 N         139.9149  142.1735  159.1274 N.ar    1  UNL1       -0.2105
      3 N         140.8025  140.9753  158.9646 N.ar    1  UNL1       -0.1619
      4 C         140.6928  140.1447  160.2088 C.ar    1  UNL1        0.1283
      5 C         139.7373  140.8296  161.1406 C.ar    1  UNL1        0.1098
      6 C         139.2430  140.4734  162.5112 C.ar    1  UNL1        0.2312
      7 N         138.2678  141.3711  163.2136 N.ar    1  UNL1       -0.1892
      8 C         137.7871  142.6249  162.5452 C.ar    1  UNL1        0.2029
      9 N         138.2814  142.9810  161.1745 N.ar    1  UNL1       -0.2046
     10 C         139.2565  142.0834  160.4722 C.ar    1  UNL1        0.1715
     11 C         138.7499  143.0868  156.9923 C.ar    1  UNL1        0.0870
     12 C         138.5548  144.1827  155.9868 C.ar    1  UNL1        0.0119
     13 C         139.3295  145.4611  156.1109 C.ar    1  UNL1        0.0017
     14 C         140.2994  145.6436  157.2406 C.ar    1  UNL1        0.0130
     15 C         140.4945  144.5478  158.2460 C.ar    1  UNL1        0.0760
     16 CL        141.4643  144.7304  159.3757 Cl      1  UNL1       -0.0807
     17 C         139.7198  143.2693  158.1219 C.ar    1  UNL1        0.1045
     18 N         137.2004  140.5300  156.7439 N.1     1  UNL1       -0.1908
     19 C         137.9752  141.8084  156.8681 C.1     1  UNL1        0.1020
     20 C         141.0050  139.2294  163.9596 C.3     1  UNL1        0.2588
     21 C         141.0147  139.7113  165.3800 C.2     1  UNL1        0.2689
     22 O         142.0332  139.1810  166.3451 O.2     1  UNL1       -0.2708
     23 N         140.0058  140.7236  165.8354 N.am    1  UNL1       -0.2664
     24 H         139.3373  141.0717  165.2020 H       1  UNL1        0.1564
     25 C         140.0154  141.2056  167.2558 C.ar    1  UNL1        0.1344
     26 C         140.5539  142.5670  167.5822 C.ar    1  UNL1        0.0368
     27 C         140.5635  143.0490  169.0026 C.ar    1  UNL1        0.0341
     28 C         140.0345  142.1695  170.0967 C.ar    1  UNL1        0.1593
     29 F         140.0441  142.6515  171.5171 F       1  UNL1       -0.2025
     30 C         139.4960  140.8081  169.7702 C.ar    1  UNL1        0.1298
     31 N         139.4864  140.3262  168.3497 N.ar    1  UNL1       -0.2267
     32 C         142.2766  138.7573  163.3191 C.3     1  UNL1        0.1261
     33 N         143.4689  139.6655  163.2604 N.3     1  UNL1       -0.2650
     34 C         144.8065  139.7052  163.9384 C.3     1  UNL1        0.1033
     35 C         145.1552  140.9498  163.1774 C.3     1  UNL1        0.1423
     36 O         146.3476  141.8580  163.1187 O.3     1  UNL1       -0.3816
     37 C         143.8178  140.9102  162.4995 C.3     1  UNL1        0.1033
     38 H         147.0308  141.5343  163.7264 H       1  UNL1        0.2105
@<TRIPOS>BOND
     1    18    19    3
     2    19    11    1
     3    11    12   ar
     4    12    13   ar
     5    13    14   ar
     6    14    15   ar
     7    15    16    1
     8    15    17   ar
     9    17     2    1
    10     2     3   ar
    11     3     4   ar
    12     4     5   ar
    13     5     6   ar
    14     6     1    1
    15     1    20    1
    16    20    32    1
    17    32    33    1
    18    33    34    1
    19    34    35    1
    20    35    36    1
    21    35    37    1
    22    20    21    1
    23    21    22    2
    24    21    23   am
    25    23    25    1
    26    25    26   ar
    27    26    27   ar
    28    27    28   ar
    29    28    29    1
    30    28    30   ar
    31    30    31   ar
    32     6     7   ar
    33     7     8   ar
    34     8     9   ar
    35     9    10   ar
    36    17    11   ar
    37    10     2   ar
    38    10     5   ar
    39    37    33    1
    40    31    25   ar
    41    36    38    1
    42    23    24    1
@<TRIPOS>MOLECULE
*****
 38 42 0 0 0
SMALL
GASTEIGER

@<TRIPOS>ATOM
      1 O         137.6470  141.5946  161.3380 O.3     1  UNL1       -0.4529
      2 N         140.4719  141.0658  165.4517 N.ar    1  UNL1       -0.2105
      3 N         140.5897  139.8669  164.5579 N.ar    1  UNL1       -0.1619
      4 C         139.7221  140.0976  163.3563 C.ar    1  UNL1        0.1283
      5 C         139.0681  141.4391  163.5074 C.ar    1  UNL1        0.1098
      6 C         138.1104  142.1930  162.6331 C.ar    1  UNL1        0.2312
      7 N         137.6162  143.5452  163.0538 N.ar    1  UNL1       -0.1892
      8 C         138.0796  144.1436  164.3488 C.ar    1  UNL1        0.2029
      9 N         139.0372  143.3897  165.2232 N.ar    1  UNL1       -0.2046
     10 C         139.5315  142.0374  164.8025 C.ar    1  UNL1        0.1715
     11 C         142.4510  142.0399  166.8244 C.ar    1  UNL1        0.0870
     12 C         143.1507  142.2332  168.1370 C.ar    1  UNL1        0.0119
     13 C         142.5712  141.6458  169.3896 C.ar    1  UNL1        0.0017
     14 C         141.2918  140.8650  169.3296 C.ar    1  UNL1        0.0130
     15 C         140.5921  140.6717  168.0169 C.ar    1  UNL1        0.0760
     16 CL        139.3127  139.8909  167.9570 Cl      1  UNL1       -0.0807
     17 C         141.1716  141.2591  166.7644 C.ar    1  UNL1        0.1045
     18 N         143.6103  143.2148  164.3193 N.1     1  UNL1       -0.1908
     19 C         143.0306  142.6273  165.5719 C.1     1  UNL1        0.1020
     20 C         138.5389  141.6328  160.1325 C.3     1  UNL1        0.2588
     21 C         138.8824  140.3621  159.4131 C.2     1  UNL1        0.2689
     22 O         138.7069  139.0403  160.1001 O.2     1  UNL1       -0.2708
     23 N         139.4013  140.4133  158.0066 N.am    1  UNL1       -0.2664
     24 H         139.5165  141.2809  157.5557 H       1  UNL1        0.1564
     25 C         139.7447  139.1427  157.2872 C.ar    1  UNL1        0.1344
     26 C         141.0597  138.4679  157.5429 C.ar    1  UNL1        0.0368
     27 C         141.4032  137.1974  156.8235 C.ar    1  UNL1        0.0341
     28 C         140.4316  136.6015  155.8482 C.ar    1  UNL1        0.1593
     29 F         140.7750  135.3309  155.1288 F       1  UNL1       -0.2025
     30 C         139.1166  137.2763  155.5925 C.ar    1  UNL1        0.1298
     31 N         138.7732  138.5469  156.3120 N.ar    1  UNL1       -0.2267
     32 C         139.0874  142.9415  159.6465 C.3     1  UNL1        0.1261
     33 N         140.2115  143.6046  160.3859 N.3     1  UNL1       -0.2650
     34 C         140.4816  144.9948  160.8805 C.3     1  UNL1        0.1033
     35 C         141.8012  144.5423  161.4316 C.3     1  UNL1        0.1423
     36 O         142.9253  145.2054  162.1710 O.3     1  UNL1       -0.3816
     37 C         141.5312  143.1522  160.9371 C.3     1  UNL1        0.1033
     38 H         142.7151  146.1427  162.3060 H       1  UNL1        0.2105
@<TRIPOS>BOND
     1    18    19    3
     2    19    11    1
     3    11    12   ar
     4    12    13   ar
     5    13    14   ar
     6    14    15   ar
     7    15    16    1
     8    15    17   ar
     9    17     2    1
    10     2     3   ar
    11     3     4   ar
    12     4     5   ar
    13     5     6   ar
    14     6     1    1
    15     1    20    1
    16    20    32    1
    17    32    33    1
    18    33    34    1
    19    34    35    1
    20    35    36    1
    21    35    37    1
    22    20    21    1
    23    21    22    2
    24    21    23   am
    25    23    25    1
    26    25    26   ar
    27    26    27   ar
    28    27    28   ar
    29    28    29    1
    30    28    30   ar
    31    30    31   ar
    32     6     7   ar
    33     7     8   ar
    34     8     9   ar
    35     9    10   ar
    36    17    11   ar
    37    10     2   ar
    38    10     5   ar
    39    37    33    1
    40    31    25   ar
    41    36    38    1
    42    23    24    1
