@<TRIPOS>MOLECULE
*****
 32 35 0 0 0
SMALL
GASTEIGER

@<TRIPOS>ATOM
      1 C         138.9183  138.8515  164.8801 C.3     1  UNL1        0.0888
      2 C         139.4721  137.6202  164.2264 C.3     1  UNL1        0.0203
      3 C         138.4747  142.6512  162.5103 C.3     1  UNL1        0.1096
      4 O         137.5688  143.8424  162.4077 O.3     1  UNL1       -0.3826
      5 C         139.6165  141.7202  162.2280 C.3     1  UNL1        0.0485
      6 C         139.7644  140.4536  163.0180 C.3     1  UNL1        0.0749
      7 N         138.7704  140.1181  164.0901 N.3     1  UNL1       -0.2713
      8 C         137.6287  141.0490  164.3723 C.3     1  UNL1        0.0749
      9 C         137.4808  142.3156  163.5824 C.3     1  UNL1        0.0485
     10 H         137.8915  144.4349  161.7109 H       1  UNL1        0.2107
     11 C         141.1920  145.6483  158.0793 C.3     1  UNL1        0.0310
     12 C         140.5127  144.8990  159.1870 C.ar    1  UNL1       -0.0219
     13 C         140.5025  145.4622  160.5773 C.ar    1  UNL1       -0.0045
     14 C         139.8232  144.7128  161.6850 C.ar    1  UNL1       -0.0024
     15 C         139.1540  143.4005  161.4025 C.ar    1  UNL1        0.0018
     16 C         139.1642  142.8373  160.0122 C.ar    1  UNL1       -0.0024
     17 C         139.8435  143.5866  158.9045 C.ar    1  UNL1       -0.0045
     18 C         138.5123  138.8162  166.3236 C.3     1  UNL1        0.1472
     19 O         137.3799  137.9362  166.7630 O.3     1  UNL1       -0.3787
     20 H         137.2486  138.0314  167.7193 H       1  UNL1        0.2108
     21 C         139.2389  139.6610  167.3279 C.ar    1  UNL1        0.0053
     22 C         138.6365  139.9033  168.6801 C.ar    1  UNL1       -0.0007
     23 C         139.3631  140.7481  169.6843 C.ar    1  UNL1        0.0141
     24 C         140.6920  141.3505  169.3364 C.ar    1  UNL1        0.0462
     25 C         141.2943  141.1082  167.9842 C.ar    1  UNL1       -0.0085
     26 C         140.5678  140.2634  166.9800 C.ar    1  UNL1       -0.0049
     27 C         142.6233  141.7106  167.6363 C.3     1  UNL1        0.0372
     28 C         143.3498  142.5553  168.6405 C.3     1  UNL1        0.0901
     29 C         142.7474  142.7977  169.9927 C.2     1  UNL1        0.2264
     30 O         143.4740  143.6424  170.9969 O.2     1  UNL1       -0.2748
     31 N         141.4185  142.1953  170.3407 N.am    1  UNL1       -0.2842
     32 H         141.0232  142.3543  171.2281 H       1  UNL1        0.1548
@<TRIPOS>BOND
     1    11    12    1
     2    12    13   ar
     3    13    14   ar
     4    14    15   ar
     5    15     3    1
     6     3     4    1
     7     3     5    1
     8     5     6    1
     9     6     7    1
    10     7     1    1
    11     1     2    1
    12     1    18    1
    13    18    19    1
    14    18    21    1
    15    21    22   ar
    16    22    23   ar
    17    23    24   ar
    18    24    25   ar
    19    25    26   ar
    20    25    27    1
    21    27    28    1
    22    28    29    1
    23    29    30    2
    24    29    31   am
    25     7     8    1
    26     8     9    1
    27    15    16   ar
    28    16    17   ar
    29    17    12   ar
    30     9     3    1
    31    26    21   ar
    32    31    24    1
    33     4    10    1
    34    19    20    1
    35    31    32    1
@<TRIPOS>MOLECULE
*****
 32 35 0 0 0
SMALL
GASTEIGER

@<TRIPOS>ATOM
      1 C         138.4591  143.3161  164.0739 C.3     1  UNL1        0.0888
      2 C         137.6775  144.3855  164.7779 C.3     1  UNL1        0.0203
      3 C         141.3069  144.4175  160.7684 C.3     1  UNL1        0.1096
      4 O         141.7340  145.6139  159.9706 O.3     1  UNL1       -0.3826
      5 C         141.2367  143.0010  161.2569 C.3     1  UNL1        0.0485
      6 C         140.2875  142.6338  162.3587 C.3     1  UNL1        0.0749
      7 N         139.4084  143.6832  162.9720 N.3     1  UNL1       -0.2713
      8 C         139.4786  145.0996  162.4835 C.3     1  UNL1        0.0749
      9 C         140.4279  145.4668  161.3816 C.3     1  UNL1        0.0485
     10 H         142.4161  145.3507  159.3332 H       1  UNL1        0.2107
     11 C         145.4165  141.8821  157.2069 C.3     1  UNL1        0.0310
     12 C         144.3891  142.5159  158.0973 C.ar    1  UNL1       -0.0219
     13 C         143.2373  143.2667  157.4974 C.ar    1  UNL1       -0.0045
     14 C         142.2100  143.9005  158.3878 C.ar    1  UNL1       -0.0024
     15 C         142.3343  143.7836  159.8780 C.ar    1  UNL1        0.0018
     16 C         143.4861  143.0329  160.4779 C.ar    1  UNL1       -0.0024
     17 C         144.5135  142.3991  159.5875 C.ar    1  UNL1       -0.0045
     18 C         138.2913  141.8796  164.4717 C.3     1  UNL1        0.1472
     19 O         137.3232  141.0046  163.7320 O.3     1  UNL1       -0.3787
     20 H         137.3372  140.1127  164.1130 H       1  UNL1        0.2108
     21 C         139.0916  141.3180  165.6093 C.ar    1  UNL1        0.0053
     22 C         138.7078  140.0022  166.2187 C.ar    1  UNL1       -0.0007
     23 C         139.5081  139.4407  167.3563 C.ar    1  UNL1        0.0141
     24 C         140.6923  140.1949  167.8845 C.ar    1  UNL1        0.0462
     25 C         141.0761  141.5107  167.2751 C.ar    1  UNL1       -0.0085
     26 C         140.2758  142.0722  166.1375 C.ar    1  UNL1       -0.0049
     27 C         142.2602  142.2649  167.8033 C.3     1  UNL1        0.0372
     28 C         143.0605  141.7034  168.9408 C.3     1  UNL1        0.0901
     29 C         142.6767  140.3875  169.5503 C.2     1  UNL1        0.2264
     30 O         143.4771  139.8260  170.6879 O.2     1  UNL1       -0.2748
     31 N         141.4926  139.6333  169.0221 N.am    1  UNL1       -0.2842
     32 H         141.2407  138.7697  169.4221 H       1  UNL1        0.1548
@<TRIPOS>BOND
     1    11    12    1
     2    12    13   ar
     3    13    14   ar
     4    14    15   ar
     5    15     3    1
     6     3     4    1
     7     3     5    1
     8     5     6    1
     9     6     7    1
    10     7     1    1
    11     1     2    1
    12     1    18    1
    13    18    19    1
    14    18    21    1
    15    21    22   ar
    16    22    23   ar
    17    23    24   ar
    18    24    25   ar
    19    25    26   ar
    20    25    27    1
    21    27    28    1
    22    28    29    1
    23    29    30    2
    24    29    31   am
    25     7     8    1
    26     8     9    1
    27    15    16   ar
    28    16    17   ar
    29    17    12   ar
    30     9     3    1
    31    26    21   ar
    32    31    24    1
    33     4    10    1
    34    19    20    1
    35    31    32    1
@<TRIPOS>MOLECULE
*****
 32 35 0 0 0
SMALL
GASTEIGER

@<TRIPOS>ATOM
      1 C         139.7673  138.6155  163.7042 C.3     1  UNL1        0.0888
      2 C         139.0397  137.3343  163.4229 C.3     1  UNL1        0.0203
      3 C         138.7221  142.3460  161.4148 C.3     1  UNL1        0.1096
      4 O         137.6031  143.3357  161.2798 O.3     1  UNL1       -0.3826
      5 C         140.0444  141.6741  161.1905 C.3     1  UNL1        0.0485
      6 C         140.3928  140.4306  161.9537 C.3     1  UNL1        0.0749
      7 N         139.4189  139.8590  162.9411 N.3     1  UNL1       -0.2713
      8 C         138.0967  140.5309  163.1652 C.3     1  UNL1        0.0749
      9 C         137.7483  141.7743  162.4021 C.3     1  UNL1        0.0485
     10 H         137.8445  144.0094  160.6249 H       1  UNL1        0.2107
     11 C         141.0630  146.0075  157.2779 C.3     1  UNL1        0.0310
     12 C         140.4778  145.0921  158.3121 C.ar    1  UNL1       -0.0219
     13 C         139.6725  143.8995  157.8887 C.ar    1  UNL1       -0.0045
     14 C         139.0874  142.9842  158.9229 C.ar    1  UNL1       -0.0024
     15 C         139.3074  143.2614  160.3805 C.ar    1  UNL1        0.0018
     16 C         140.1126  144.4540  160.8040 C.ar    1  UNL1       -0.0024
     17 C         140.6978  145.3694  159.7697 C.ar    1  UNL1       -0.0045
     18 C         140.8433  138.6533  164.7486 C.3     1  UNL1        0.1472
     19 O         142.2032  138.0979  164.4449 O.3     1  UNL1       -0.3787
     20 H         142.7751  138.2003  165.2216 H       1  UNL1        0.2108
     21 C         140.5594  139.2463  166.0969 C.ar    1  UNL1        0.0053
     22 C         139.1686  139.2040  166.6570 C.ar    1  UNL1       -0.0007
     23 C         138.8847  139.7971  168.0052 C.ar    1  UNL1        0.0141
     24 C         139.9917  140.4324  168.7932 C.ar    1  UNL1        0.0462
     25 C         141.3825  140.4747  168.2331 C.ar    1  UNL1       -0.0085
     26 C         141.6663  139.8817  166.8849 C.ar    1  UNL1       -0.0049
     27 C         142.4894  141.1101  169.0211 C.3     1  UNL1        0.0372
     28 C         142.2055  141.7031  170.3693 C.3     1  UNL1        0.0901
     29 C         140.8147  141.6609  170.9295 C.2     1  UNL1        0.2264
     30 O         140.5308  142.2539  172.2777 O.2     1  UNL1       -0.2748
     31 N         139.7077  141.0255  170.1415 N.am    1  UNL1       -0.2842
     32 H         138.7949  140.9978  170.5092 H       1  UNL1        0.1548
@<TRIPOS>BOND
     1    11    12    1
     2    12    13   ar
     3    13    14   ar
     4    14    15   ar
     5    15     3    1
     6     3     4    1
     7     3     5    1
     8     5     6    1
     9     6     7    1
    10     7     1    1
    11     1     2    1
    12     1    18    1
    13    18    19    1
    14    18    21    1
    15    21    22   ar
    16    22    23   ar
    17    23    24   ar
    18    24    25   ar
    19    25    26   ar
    20    25    27    1
    21    27    28    1
    22    28    29    1
    23    29    30    2
    24    29    31   am
    25     7     8    1
    26     8     9    1
    27    15    16   ar
    28    16    17   ar
    29    17    12   ar
    30     9     3    1
    31    26    21   ar
    32    31    24    1
    33     4    10    1
    34    19    20    1
    35    31    32    1
@<TRIPOS>MOLECULE
*****
 32 35 0 0 0
SMALL
GASTEIGER

@<TRIPOS>ATOM
      1 C         138.3867  138.9745  166.8254 C.3     1  UNL1        0.0888
      2 C         137.2494  138.2998  167.5336 C.3     1  UNL1        0.0203
      3 C         138.6358  138.8426  162.3342 C.3     1  UNL1        0.1096
      4 O         138.8505  137.8573  161.2237 O.3     1  UNL1       -0.3826
      5 C         138.3906  140.1467  163.0338 C.3     1  UNL1        0.0485
      6 C         138.3076  140.1907  164.5308 C.3     1  UNL1        0.0749
      7 N         138.4697  138.9305  165.3283 N.3     1  UNL1       -0.2713
      8 C         138.7149  137.6265  164.6287 C.3     1  UNL1        0.0749
      9 C         138.7979  137.5826  163.1317 C.3     1  UNL1        0.0485
     10 H         138.8195  138.3191  160.3712 H       1  UNL1        0.2107
     11 C         138.2856  142.5141  157.6016 C.3     1  UNL1        0.0310
     12 C         138.3731  141.5961  158.7847 C.ar    1  UNL1       -0.0219
     13 C         138.1580  142.1337  160.1685 C.ar    1  UNL1       -0.0045
     14 C         138.2456  141.2158  161.3516 C.ar    1  UNL1       -0.0024
     15 C         138.5482  139.7605  161.1510 C.ar    1  UNL1        0.0018
     16 C         138.7633  139.2229  159.7673 C.ar    1  UNL1       -0.0024
     17 C         138.6758  140.1408  158.5841 C.ar    1  UNL1       -0.0045
     18 C         139.4408  139.6932  167.6142 C.3     1  UNL1        0.1472
     19 O         139.3025  139.8288  169.1016 O.3     1  UNL1       -0.3787
     20 H         140.0635  140.3162  169.4540 H       1  UNL1        0.2108
     21 C         140.6333  140.2763  166.9156 C.ar    1  UNL1        0.0053
     22 C         140.8339  141.7625  166.8881 C.ar    1  UNL1       -0.0007
     23 C         142.0263  142.3456  166.1895 C.ar    1  UNL1        0.0141
     24 C         143.0182  141.4423  165.5184 C.ar    1  UNL1        0.0462
     25 C         142.8177  139.9561  165.5459 C.ar    1  UNL1       -0.0085
     26 C         141.6252  139.3731  166.2445 C.ar    1  UNL1       -0.0049
     27 C         143.8096  139.0529  164.8748 C.3     1  UNL1        0.0372
     28 C         145.0020  139.6359  164.1762 C.3     1  UNL1        0.0901
     29 C         145.2026  141.1222  164.1487 C.2     1  UNL1        0.2264
     30 O         146.3951  141.7053  163.4501 O.2     1  UNL1       -0.2748
     31 N         144.2107  142.0254  164.8198 N.am    1  UNL1       -0.2842
     32 H         144.3424  143.0009  164.8017 H       1  UNL1        0.1548
@<TRIPOS>BOND
     1    11    12    1
     2    12    13   ar
     3    13    14   ar
     4    14    15   ar
     5    15     3    1
     6     3     4    1
     7     3     5    1
     8     5     6    1
     9     6     7    1
    10     7     1    1
    11     1     2    1
    12     1    18    1
    13    18    19    1
    14    18    21    1
    15    21    22   ar
    16    22    23   ar
    17    23    24   ar
    18    24    25   ar
    19    25    26   ar
    20    25    27    1
    21    27    28    1
    22    28    29    1
    23    29    30    2
    24    29    31   am
    25     7     8    1
    26     8     9    1
    27    15    16   ar
    28    16    17   ar
    29    17    12   ar
    30     9     3    1
    31    26    21   ar
    32    31    24    1
    33     4    10    1
    34    19    20    1
    35    31    32    1
@<TRIPOS>MOLECULE
*****
 32 35 0 0 0
SMALL
GASTEIGER

@<TRIPOS>ATOM
      1 C         144.1749  140.2545  162.3886 C.3     1  UNL1        0.0888
      2 C         144.0409  139.0805  161.4646 C.3     1  UNL1        0.0203
      3 C         142.8429  139.9091  166.6731 C.3     1  UNL1        0.1096
      4 O         142.9548  138.9723  167.8392 O.3     1  UNL1       -0.3826
      5 C         142.4559  141.1101  165.8618 C.3     1  UNL1        0.0485
      6 C         142.8999  141.2252  164.4337 C.3     1  UNL1        0.0749
      7 N         143.7309  140.1394  163.8167 N.3     1  UNL1       -0.2713
      8 C         144.1179  138.9385  164.6280 C.3     1  UNL1        0.0749
      9 C         143.6739  138.8234  166.0561 C.3     1  UNL1        0.0485
     10 H         142.4765  139.3419  168.5979 H       1  UNL1        0.2107
     11 C         139.6745  142.9508  170.7608 C.3     1  UNL1        0.0310
     12 C         140.4665  142.1904  169.7388 C.ar    1  UNL1       -0.0219
     13 C         141.8015  142.7059  169.2891 C.ar    1  UNL1       -0.0045
     14 C         142.5936  141.9455  168.2672 C.ar    1  UNL1       -0.0024
     15 C         142.0508  140.6696  167.6950 C.ar    1  UNL1        0.0018
     16 C         140.7159  140.1541  168.1447 C.ar    1  UNL1       -0.0024
     17 C         139.9238  140.9145  169.1667 C.ar    1  UNL1       -0.0045
     18 C         144.7529  141.5436  161.8845 C.3     1  UNL1        0.1472
     19 O         146.0558  142.0462  162.4320 O.3     1  UNL1       -0.3787
     20 H         146.2849  142.8852  162.0023 H       1  UNL1        0.2108
     21 C         144.0279  142.3300  160.8327 C.ar    1  UNL1        0.0053
     22 C         144.4769  142.2625  159.4031 C.ar    1  UNL1       -0.0007
     23 C         143.7520  143.0490  158.3515 C.ar    1  UNL1        0.0141
     24 C         142.5781  143.9029  158.7295 C.ar    1  UNL1        0.0462
     25 C         142.1292  143.9704  160.1591 C.ar    1  UNL1       -0.0085
     26 C         142.8541  143.1840  161.2107 C.ar    1  UNL1       -0.0049
     27 C         140.9553  144.8243  160.5371 C.3     1  UNL1        0.0372
     28 C         140.2304  145.6108  159.4854 C.3     1  UNL1        0.0901
     29 C         140.6794  145.5433  158.0557 C.2     1  UNL1        0.2264
     30 O         139.9545  146.3297  157.0041 O.2     1  UNL1       -0.2748
     31 N         141.8532  144.6894  157.6777 N.am    1  UNL1       -0.2842
     32 H         142.1479  144.6451  156.7394 H       1  UNL1        0.1548
@<TRIPOS>BOND
     1    11    12    1
     2    12    13   ar
     3    13    14   ar
     4    14    15   ar
     5    15     3    1
     6     3     4    1
     7     3     5    1
     8     5     6    1
     9     6     7    1
    10     7     1    1
    11     1     2    1
    12     1    18    1
    13    18    19    1
    14    18    21    1
    15    21    22   ar
    16    22    23   ar
    17    23    24   ar
    18    24    25   ar
    19    25    26   ar
    20    25    27    1
    21    27    28    1
    22    28    29    1
    23    29    30    2
    24    29    31   am
    25     7     8    1
    26     8     9    1
    27    15    16   ar
    28    16    17   ar
    29    17    12   ar
    30     9     3    1
    31    26    21   ar
    32    31    24    1
    33     4    10    1
    34    19    20    1
    35    31    32    1
@<TRIPOS>MOLECULE
*****
 32 35 0 0 0
SMALL
GASTEIGER

@<TRIPOS>ATOM
      1 C         144.1929  141.8243  163.5359 C.3     1  UNL1        0.0888
      2 C         145.6179  141.8871  164.0004 C.3     1  UNL1        0.0203
      3 C         142.8524  138.4850  160.8337 C.3     1  UNL1        0.1096
      4 O         143.0074  137.0013  160.6767 O.3     1  UNL1       -0.3826
      5 C         142.4058  139.8917  160.5658 C.3     1  UNL1        0.0485
      6 C         142.8526  141.0048  161.4666 C.3     1  UNL1        0.0749
      7 N         143.7461  140.7112  162.6351 N.3     1  UNL1       -0.2713
      8 C         144.1927  139.3045  162.9029 C.3     1  UNL1        0.0749
      9 C         143.7458  138.1914  162.0022 C.3     1  UNL1        0.0485
     10 H         142.5044  136.7037  159.9026 H       1  UNL1        0.2107
     11 C         139.4939  137.5983  155.9414 C.3     1  UNL1        0.0310
     12 C         140.3336  137.8199  157.1644 C.ar    1  UNL1       -0.0219
     13 C         139.7186  138.4081  158.3998 C.ar    1  UNL1       -0.0045
     14 C         140.5583  138.6297  159.6228 C.ar    1  UNL1       -0.0024
     15 C         142.0128  138.2633  159.6106 C.ar    1  UNL1        0.0018
     16 C         142.6277  137.6752  158.3753 C.ar    1  UNL1       -0.0024
     17 C         141.7880  137.4535  157.1522 C.ar    1  UNL1       -0.0045
     18 C         143.2149  142.8746  163.9721 C.3     1  UNL1        0.1472
     19 O         142.9317  144.0504  163.0850 O.3     1  UNL1       -0.3787
     20 H         142.2818  144.6294  163.5131 H       1  UNL1        0.2108
     21 C         142.5201  142.7490  165.2956 C.ar    1  UNL1        0.0053
     22 C         141.0238  142.8248  165.3673 C.ar    1  UNL1       -0.0007
     23 C         140.3290  142.6992  166.6908 C.ar    1  UNL1        0.0141
     24 C         141.1307  142.4979  167.9425 C.ar    1  UNL1        0.0462
     25 C         142.6270  142.4221  167.8708 C.ar    1  UNL1       -0.0085
     26 C         143.3217  142.5477  166.5474 C.ar    1  UNL1       -0.0049
     27 C         143.4286  142.2208  169.1226 C.3     1  UNL1        0.0372
     28 C         142.7339  142.0953  170.4460 C.3     1  UNL1        0.0901
     29 C         141.2375  142.1710  170.5178 C.2     1  UNL1        0.2264
     30 O         140.5427  142.0455  171.8412 O.2     1  UNL1       -0.2748
     31 N         140.4358  142.3724  169.2660 N.am    1  UNL1       -0.2842
     32 H         139.4537  142.4221  169.3131 H       1  UNL1        0.1548
@<TRIPOS>BOND
     1    11    12    1
     2    12    13   ar
     3    13    14   ar
     4    14    15   ar
     5    15     3    1
     6     3     4    1
     7     3     5    1
     8     5     6    1
     9     6     7    1
    10     7     1    1
    11     1     2    1
    12     1    18    1
    13    18    19    1
    14    18    21    1
    15    21    22   ar
    16    22    23   ar
    17    23    24   ar
    18    24    25   ar
    19    25    26   ar
    20    25    27    1
    21    27    28    1
    22    28    29    1
    23    29    30    2
    24    29    31   am
    25     7     8    1
    26     8     9    1
    27    15    16   ar
    28    16    17   ar
    29    17    12   ar
    30     9     3    1
    31    26    21   ar
    32    31    24    1
    33     4    10    1
    34    19    20    1
    35    31    32    1
@<TRIPOS>MOLECULE
*****
 32 35 0 0 0
SMALL
GASTEIGER

@<TRIPOS>ATOM
      1 C         144.2381  140.6545  162.9216 C.3     1  UNL1        0.0888
      2 C         145.3739  140.9638  163.8514 C.3     1  UNL1        0.0203
      3 C         142.2980  143.9593  160.5627 C.3     1  UNL1        0.1096
      4 O         141.7646  145.3481  160.7549 O.3     1  UNL1       -0.3826
      5 C         142.6725  142.6744  159.8853 C.3     1  UNL1        0.0485
      6 C         143.3192  141.5728  160.6716 C.3     1  UNL1        0.0749
      7 N         143.5914  141.7561  162.1353 N.3     1  UNL1       -0.2713
      8 C         143.2169  143.0410  162.8126 C.3     1  UNL1        0.0749
      9 C         142.5702  144.1426  162.0263 C.3     1  UNL1        0.0485
     10 H         141.4238  145.6832  159.9108 H       1  UNL1        0.2107
     11 C         140.4683  145.1553  154.9750 C.3     1  UNL1        0.0310
     12 C         140.9256  144.8563  156.3719 C.ar    1  UNL1       -0.0219
     13 C         142.3204  144.3604  156.6144 C.ar    1  UNL1       -0.0045
     14 C         142.7778  144.0614  158.0113 C.ar    1  UNL1       -0.0024
     15 C         141.8406  144.2583  159.1657 C.ar    1  UNL1        0.0018
     16 C         140.4458  144.7543  158.9233 C.ar    1  UNL1       -0.0024
     17 C         139.9884  145.0533  157.5264 C.ar    1  UNL1       -0.0045
     18 C         143.7491  139.2438  162.7781 C.3     1  UNL1        0.1472
     19 O         144.5388  138.2545  161.9734 O.3     1  UNL1       -0.3787
     20 H         144.0868  137.3963  161.9822 H       1  UNL1        0.2108
     21 C         142.4704  138.8223  163.4394 C.ar    1  UNL1        0.0053
     22 C         141.7102  137.6396  162.9167 C.ar    1  UNL1       -0.0007
     23 C         140.4315  137.2181  163.5780 C.ar    1  UNL1        0.0141
     24 C         139.9130  137.9794  164.7619 C.ar    1  UNL1        0.0462
     25 C         140.6732  139.1622  165.2845 C.ar    1  UNL1       -0.0085
     26 C         141.9519  139.5836  164.6232 C.ar    1  UNL1       -0.0049
     27 C         140.1547  139.9235  166.4684 C.3     1  UNL1        0.0372
     28 C         138.8760  139.5021  167.1296 C.3     1  UNL1        0.0901
     29 C         138.1157  138.3193  166.6070 C.2     1  UNL1        0.2264
     30 O         136.8370  137.8978  167.2682 O.2     1  UNL1       -0.2748
     31 N         138.6342  137.5580  165.4231 N.am    1  UNL1       -0.2842
     32 H         138.1353  136.7817  165.0801 H       1  UNL1        0.1548
@<TRIPOS>BOND
     1    11    12    1
     2    12    13   ar
     3    13    14   ar
     4    14    15   ar
     5    15     3    1
     6     3     4    1
     7     3     5    1
     8     5     6    1
     9     6     7    1
    10     7     1    1
    11     1     2    1
    12     1    18    1
    13    18    19    1
    14    18    21    1
    15    21    22   ar
    16    22    23   ar
    17    23    24   ar
    18    24    25   ar
    19    25    26   ar
    20    25    27    1
    21    27    28    1
    22    28    29    1
    23    29    30    2
    24    29    31   am
    25     7     8    1
    26     8     9    1
    27    15    16   ar
    28    16    17   ar
    29    17    12   ar
    30     9     3    1
    31    26    21   ar
    32    31    24    1
    33     4    10    1
    34    19    20    1
    35    31    32    1
@<TRIPOS>MOLECULE
*****
 32 35 0 0 0
SMALL
GASTEIGER

@<TRIPOS>ATOM
      1 C         139.0861  140.6553  162.3383 C.3     1  UNL1        0.0888
      2 C         139.4579  139.2443  161.9904 C.3     1  UNL1        0.0203
      3 C         140.8173  144.0821  159.9909 C.3     1  UNL1        0.1096
      4 O         141.6074  145.3391  160.2056 O.3     1  UNL1       -0.3826
      5 C         140.0600  142.9965  159.2853 C.3     1  UNL1        0.0485
      6 C         139.4829  141.8542  160.0677 C.3     1  UNL1        0.0749
      7 N         139.6632  141.7976  161.5558 N.3     1  UNL1       -0.2713
      8 C         140.4205  142.8832  162.2614 C.3     1  UNL1        0.0749
      9 C         140.9976  144.0255  161.4789 C.3     1  UNL1        0.0485
     10 H         141.7510  145.7802  159.3537 H       1  UNL1        0.2107
     11 C         141.1938  146.0547  154.3370 C.3     1  UNL1        0.0310
     12 C         141.0996  145.5616  155.7504 C.ar    1  UNL1       -0.0219
     13 C         141.8044  144.3002  156.1532 C.ar    1  UNL1       -0.0045
     14 C         141.7103  143.8071  157.5667 C.ar    1  UNL1       -0.0024
     15 C         140.9114  144.5753  158.5774 C.ar    1  UNL1        0.0018
     16 C         140.2066  145.8367  158.1747 C.ar    1  UNL1       -0.0024
     17 C         140.3008  146.3298  156.7612 C.ar    1  UNL1       -0.0045
     18 C         138.1374  140.9240  163.4686 C.3     1  UNL1        0.1472
     19 O         136.7605  141.4466  163.1840 O.3     1  UNL1       -0.3787
     20 H         136.2804  141.5644  164.0186 H       1  UNL1        0.2108
     21 C         138.5656  140.6702  164.8837 C.ar    1  UNL1        0.0053
     22 C         138.0985  139.4372  165.5989 C.ar    1  UNL1       -0.0007
     23 C         138.5267  139.1834  167.0138 C.ar    1  UNL1        0.0141
     24 C         139.4220  140.1626  167.7136 C.ar    1  UNL1        0.0462
     25 C         139.8891  141.3955  166.9984 C.ar    1  UNL1       -0.0085
     26 C         139.4609  141.6493  165.5834 C.ar    1  UNL1       -0.0049
     27 C         140.7844  142.3747  167.6982 C.3     1  UNL1        0.0372
     28 C         141.2126  142.1209  169.1132 C.3     1  UNL1        0.0901
     29 C         140.7454  140.8879  169.8284 C.2     1  UNL1        0.2264
     30 O         141.1736  140.6341  171.2434 O.2     1  UNL1       -0.2748
     31 N         139.8501  139.9087  169.1287 N.am    1  UNL1       -0.2842
     32 H         139.5435  139.0995  169.5981 H       1  UNL1        0.1548
@<TRIPOS>BOND
     1    11    12    1
     2    12    13   ar
     3    13    14   ar
     4    14    15   ar
     5    15     3    1
     6     3     4    1
     7     3     5    1
     8     5     6    1
     9     6     7    1
    10     7     1    1
    11     1     2    1
    12     1    18    1
    13    18    19    1
    14    18    21    1
    15    21    22   ar
    16    22    23   ar
    17    23    24   ar
    18    24    25   ar
    19    25    26   ar
    20    25    27    1
    21    27    28    1
    22    28    29    1
    23    29    30    2
    24    29    31   am
    25     7     8    1
    26     8     9    1
    27    15    16   ar
    28    16    17   ar
    29    17    12   ar
    30     9     3    1
    31    26    21   ar
    32    31    24    1
    33     4    10    1
    34    19    20    1
    35    31    32    1
@<TRIPOS>MOLECULE
*****
 32 35 0 0 0
SMALL
GASTEIGER

@<TRIPOS>ATOM
      1 C         143.4633  139.8472  164.0575 C.3     1  UNL1        0.0888
      2 C         144.8730  139.3423  164.1467 C.3     1  UNL1        0.0203
      3 C         142.5658  143.6243  161.7820 C.3     1  UNL1        0.1096
      4 O         142.6239  145.1129  161.9576 O.3     1  UNL1       -0.3826
      5 C         142.3284  142.2887  161.1418 C.3     1  UNL1        0.0485
      6 C         142.6275  141.0296  161.9003 C.3     1  UNL1        0.0749
      7 N         143.1642  141.1062  163.2990 N.3     1  UNL1       -0.2713
      8 C         143.4016  142.4418  163.9391 C.3     1  UNL1        0.0749
      9 C         143.1024  143.7008  163.1807 C.3     1  UNL1        0.0485
     10 H         142.3105  145.5464  161.1485 H       1  UNL1        0.2107
     11 C         140.5001  145.3860  156.4314 C.3     1  UNL1        0.0310
     12 C         141.0166  144.9455  157.7690 C.ar    1  UNL1       -0.0219
     13 C         140.3432  145.4149  159.0246 C.ar    1  UNL1       -0.0045
     14 C         140.8596  144.9744  160.3622 C.ar    1  UNL1       -0.0024
     15 C         142.0494  144.0647  160.4443 C.ar    1  UNL1        0.0018
     16 C         142.7228  143.5954  159.1889 C.ar    1  UNL1       -0.0024
     17 C         142.2064  144.0358  157.8512 C.ar    1  UNL1       -0.0045
     18 C         142.3528  139.0930  164.7269 C.3     1  UNL1        0.1472
     19 O         141.8234  137.8328  164.1092 O.3     1  UNL1       -0.3787
     20 H         141.1138  137.4738  164.6647 H       1  UNL1        0.2108
     21 C         141.7718  139.5991  166.0139 C.ar    1  UNL1        0.0053
     22 C         140.2965  139.4935  166.2635 C.ar    1  UNL1       -0.0007
     23 C         139.7155  139.9996  167.5504 C.ar    1  UNL1        0.0141
     24 C         140.6099  140.6112  168.5878 C.ar    1  UNL1        0.0462
     25 C         142.0851  140.7167  168.3382 C.ar    1  UNL1       -0.0085
     26 C         142.6661  140.2107  167.0513 C.ar    1  UNL1       -0.0049
     27 C         142.9794  141.3283  169.3756 C.3     1  UNL1        0.0372
     28 C         142.3985  141.8344  170.6626 C.3     1  UNL1        0.0901
     29 C         140.9231  141.7288  170.9122 C.2     1  UNL1        0.2264
     30 O         140.3421  142.2349  172.1992 O.2     1  UNL1       -0.2748
     31 N         140.0288  141.1172  169.8748 N.am    1  UNL1       -0.2842
     32 H         139.0605  141.0479  170.0387 H       1  UNL1        0.1548
@<TRIPOS>BOND
     1    11    12    1
     2    12    13   ar
     3    13    14   ar
     4    14    15   ar
     5    15     3    1
     6     3     4    1
     7     3     5    1
     8     5     6    1
     9     6     7    1
    10     7     1    1
    11     1     2    1
    12     1    18    1
    13    18    19    1
    14    18    21    1
    15    21    22   ar
    16    22    23   ar
    17    23    24   ar
    18    24    25   ar
    19    25    26   ar
    20    25    27    1
    21    27    28    1
    22    28    29    1
    23    29    30    2
    24    29    31   am
    25     7     8    1
    26     8     9    1
    27    15    16   ar
    28    16    17   ar
    29    17    12   ar
    30     9     3    1
    31    26    21   ar
    32    31    24    1
    33     4    10    1
    34    19    20    1
    35    31    32    1
