@<TRIPOS>MOLECULE
*****
 35 37 0 0 0
SMALL
GASTEIGER

@<TRIPOS>ATOM
      1 C         142.2164  138.9398  158.7666 C.3     1  UNL1        0.0528
      2 C         140.9649  138.3919  158.1475 C.3     1  UNL1        0.0242
      3 C         139.6841  138.3820  158.9282 C.3     1  UNL1        0.0728
      4 N         139.6550  138.9200  160.3282 N.3     1  UNL1       -0.2689
      5 C         140.9065  139.4679  160.9473 C.3     1  UNL1        0.0728
      6 C         142.1873  139.4778  160.1665 C.3     1  UNL1        0.0242
      7 C         143.6512  139.3504  158.9178 C.2     1  UNL1        0.0513
      8 O         144.3343  139.2142  160.2462 O.co2   1  UNL1       -0.5491
      9 O         144.4029  139.8971  157.7404 O.co2   1  UNL1       -0.5491
     10 C         142.7438  138.5444  157.4192 C.3     1  UNL1        0.0949
     11 C         143.6236  136.5126  156.0598 C.2     1  UNL1        0.2461
     12 O         144.8436  137.2968  155.6772 O.2     1  UNL1       -0.2701
     13 N         142.5736  137.1364  156.9308 N.am    1  UNL1       -0.3005
     14 H         141.7729  136.6216  157.1820 H       1  UNL1        0.1498
     15 C         143.9654  132.5674  155.7972 C.ar    1  UNL1        0.1419
     16 C         143.1131  132.2885  154.5948 C.ar    1  UNL1        0.0738
     17 C         142.4309  133.4176  153.8808 C.ar    1  UNL1        0.1419
     18 C         142.6011  134.8256  154.3691 C.ar    1  UNL1        0.0416
     19 C         143.4534  135.1045  155.5715 C.ar    1  UNL1        0.0594
     20 C         144.1356  133.9754  156.2856 C.ar    1  UNL1        0.0416
     21 C         145.1927  131.6453  157.8932 C.3     1  UNL1        0.2525
     22 O         144.6476  131.4383  156.5112 O.3     1  UNL1       -0.4713
     23 O         141.5786  133.1386  152.6783 O.3     1  UNL1       -0.4713
     24 C         140.8916  134.2670  151.9680 C.3     1  UNL1        0.2525
     25 C         138.3742  138.9101  161.1089 C.3     1  UNL1        0.0991
     26 C         138.4065  139.0236  162.6042 C.ar    1  UNL1       -0.0062
     27 C         138.8118  137.8438  163.4373 C.ar    1  UNL1       -0.0030
     28 C         138.8441  137.9571  164.9327 C.ar    1  UNL1        0.0036
     29 C         138.4712  139.2503  165.5950 C.ar    1  UNL1        0.0714
     30 C         138.0659  140.4301  164.7619 C.ar    1  UNL1        0.0036
     31 C         138.0336  140.3167  163.2666 C.ar    1  UNL1       -0.0030
     32 C         138.5034  139.3637  167.0903 C.3     1  UNL1        0.4186
     33 F         138.5358  139.4772  168.5857 F       1  UNL1       -0.1659
     34 F         139.4087  140.5547  166.9804 F       1  UNL1       -0.1659
     35 F         137.5983  138.1728  167.2003 F       1  UNL1       -0.1659
@<TRIPOS>UNITY_ATOM_ATTR
8 1
charge -1
@<TRIPOS>BOND
     1    21    22    1
     2    22    15    1
     3    15    16   ar
     4    16    17   ar
     5    17    23    1
     6    23    24    1
     7    17    18   ar
     8    18    19   ar
     9    19    11    1
    10    11    12    2
    11    11    13   am
    12    13    10    1
    13    10     1    1
    14     1     7    1
    15     7     8   ar
    16     7     9   ar
    17     1     2    1
    18     2     3    1
    19     3     4    1
    20     4    25    1
    21    25    26    1
    22    26    27   ar
    23    27    28   ar
    24    28    29   ar
    25    29    32    1
    26    32    33    1
    27    32    34    1
    28    32    35    1
    29    29    30   ar
    30    30    31   ar
    31     4     5    1
    32     5     6    1
    33    19    20   ar
    34    20    15   ar
    35     6     1    1
    36    31    26   ar
    37    13    14    1
@<TRIPOS>MOLECULE
*****
 35 37 0 0 0
SMALL
GASTEIGER

@<TRIPOS>ATOM
      1 C         138.4995  139.0983  162.6476 C.3     1  UNL1        0.0528
      2 C         138.9695  137.8924  163.4058 C.3     1  UNL1        0.0242
      3 C         138.9974  137.9132  164.9054 C.3     1  UNL1        0.0728
      4 N         138.5553  139.1400  165.6468 N.3     1  UNL1       -0.2689
      5 C         138.0854  140.3459  164.8886 C.3     1  UNL1        0.0728
      6 C         138.0574  140.3251  163.3890 C.3     1  UNL1        0.0242
      7 C         138.1397  139.9852  161.4926 C.2     1  UNL1        0.0513
      8 O         138.8912  141.2634  161.2659 O.co2   1  UNL1       -0.5491
      9 O         137.0283  139.5938  160.5644 O.co2   1  UNL1       -0.5491
     10 C         138.8166  138.1796  161.5052 C.3     1  UNL1        0.0949
     11 C         141.1309  138.3208  160.3328 C.2     1  UNL1        0.2461
     12 O         141.7373  137.4984  161.4309 O.2     1  UNL1       -0.2701
     13 N         139.6705  138.6615  160.3700 N.am    1  UNL1       -0.3005
     14 H         139.2725  139.2013  159.6493 H       1  UNL1        0.1498
     15 C         143.0358  138.4199  156.8526 C.ar    1  UNL1        0.1419
     16 C         143.6925  139.7664  156.9272 C.ar    1  UNL1        0.0738
     17 C         143.4954  140.6311  158.1369 C.ar    1  UNL1        0.1419
     18 C         142.6415  140.1492  159.2722 C.ar    1  UNL1        0.0416
     19 C         141.9848  138.8027  159.1976 C.ar    1  UNL1        0.0594
     20 C         142.1819  137.9380  157.9878 C.ar    1  UNL1        0.0416
     21 C         143.9460  136.2416  155.7681 C.3     1  UNL1        0.2525
     22 O         143.2329  137.5553  155.6429 O.3     1  UNL1       -0.4713
     23 O         144.1522  141.9776  158.2115 O.3     1  UNL1       -0.4713
     24 C         143.3205  143.2066  158.4304 C.3     1  UNL1        0.2525
     25 C         138.5832  139.1608  167.1464 C.3     1  UNL1        0.0991
     26 C         139.5728  140.0284  167.8661 C.ar    1  UNL1       -0.0062
     27 C         139.3028  140.4632  169.2762 C.ar    1  UNL1       -0.0030
     28 C         140.2924  141.3308  169.9961 C.ar    1  UNL1        0.0036
     29 C         141.5518  141.7636  169.3058 C.ar    1  UNL1        0.0714
     30 C         141.8217  141.3289  167.8958 C.ar    1  UNL1        0.0036
     31 C         140.8322  140.4613  167.1760 C.ar    1  UNL1       -0.0030
     32 C         142.5413  142.6312  170.0256 C.3     1  UNL1        0.4186
     33 F         143.5310  143.4987  170.7454 F       1  UNL1       -0.1659
     34 F         143.5444  141.5164  169.9902 F       1  UNL1       -0.1659
     35 F         141.5384  143.7459  170.0609 F       1  UNL1       -0.1659
@<TRIPOS>UNITY_ATOM_ATTR
8 1
charge -1
@<TRIPOS>BOND
     1    21    22    1
     2    22    15    1
     3    15    16   ar
     4    16    17   ar
     5    17    23    1
     6    23    24    1
     7    17    18   ar
     8    18    19   ar
     9    19    11    1
    10    11    12    2
    11    11    13   am
    12    13    10    1
    13    10     1    1
    14     1     7    1
    15     7     8   ar
    16     7     9   ar
    17     1     2    1
    18     2     3    1
    19     3     4    1
    20     4    25    1
    21    25    26    1
    22    26    27   ar
    23    27    28   ar
    24    28    29   ar
    25    29    32    1
    26    32    33    1
    27    32    34    1
    28    32    35    1
    29    29    30   ar
    30    30    31   ar
    31     4     5    1
    32     5     6    1
    33    19    20   ar
    34    20    15   ar
    35     6     1    1
    36    31    26   ar
    37    13    14    1
@<TRIPOS>MOLECULE
*****
 35 37 0 0 0
SMALL
GASTEIGER

@<TRIPOS>ATOM
      1 C         138.2258  139.9359  162.6121 C.3     1  UNL1        0.0528
      2 C         138.1185  141.0837  163.5718 C.3     1  UNL1        0.0242
      3 C         138.3277  140.8561  165.0396 C.3     1  UNL1        0.0728
      4 N         138.6442  139.4807  165.5477 N.3     1  UNL1       -0.2689
      5 C         138.7516  138.3330  164.5880 C.3     1  UNL1        0.0728
      6 C         138.5424  138.5605  163.1202 C.3     1  UNL1        0.0242
      7 C         138.2229  139.1739  161.3201 C.2     1  UNL1        0.0513
      8 O         139.3625  138.2571  160.9875 O.co2   1  UNL1       -0.5491
      9 O         137.0803  139.3287  160.3607 O.co2   1  UNL1       -0.5491
     10 C         137.9082  141.0467  161.6554 C.3     1  UNL1        0.0949
     11 C         139.2760  143.0283  160.6792 C.2     1  UNL1        0.2461
     12 O         138.5266  143.9808  161.5630 O.2     1  UNL1       -0.2701
     13 N         138.9668  141.5611  160.7254 N.am    1  UNL1       -0.3005
     14 H         139.4586  140.9359  160.1454 H       1  UNL1        0.1498
     15 C         142.7649  143.4507  158.8356 C.ar    1  UNL1        0.1419
     16 C         142.4516  144.5717  157.8894 C.ar    1  UNL1        0.0738
     17 C         141.0798  145.1782  157.8732 C.ar    1  UNL1        0.1419
     18 C         140.0212  144.6637  158.8031 C.ar    1  UNL1        0.0416
     19 C         140.3345  143.5427  159.7493 C.ar    1  UNL1        0.0594
     20 C         141.7063  142.9362  159.7655 C.ar    1  UNL1        0.0416
     21 C         144.7233  142.2824  157.5907 C.3     1  UNL1        0.2525
     22 O         144.1367  142.8442  158.8518 O.3     1  UNL1       -0.4713
     23 O         140.7664  146.2992  156.9270 O.3     1  UNL1       -0.4713
     24 C         139.5285  146.2434  156.0818 C.3     1  UNL1        0.2525
     25 C         138.8534  139.2532  167.0155 C.3     1  UNL1        0.0991
     26 C         139.8260  140.1055  167.7755 C.ar    1  UNL1       -0.0062
     27 C         139.4440  140.6696  169.1119 C.ar    1  UNL1       -0.0030
     28 C         140.4166  141.5220  169.8719 C.ar    1  UNL1        0.0036
     29 C         141.7711  141.8102  169.2956 C.ar    1  UNL1        0.0714
     30 C         142.1531  141.2461  167.9592 C.ar    1  UNL1        0.0036
     31 C         141.1805  140.3938  167.1992 C.ar    1  UNL1       -0.0030
     32 C         142.7437  142.6625  170.0556 C.3     1  UNL1        0.4186
     33 F         143.7163  143.5148  170.8156 F       1  UNL1       -0.1659
     34 F         143.7552  141.5562  170.0017 F       1  UNL1       -0.1659
     35 F         141.7322  143.7688  170.1095 F       1  UNL1       -0.1659
@<TRIPOS>UNITY_ATOM_ATTR
8 1
charge -1
@<TRIPOS>BOND
     1    21    22    1
     2    22    15    1
     3    15    16   ar
     4    16    17   ar
     5    17    23    1
     6    23    24    1
     7    17    18   ar
     8    18    19   ar
     9    19    11    1
    10    11    12    2
    11    11    13   am
    12    13    10    1
    13    10     1    1
    14     1     7    1
    15     7     8   ar
    16     7     9   ar
    17     1     2    1
    18     2     3    1
    19     3     4    1
    20     4    25    1
    21    25    26    1
    22    26    27   ar
    23    27    28   ar
    24    28    29   ar
    25    29    32    1
    26    32    33    1
    27    32    34    1
    28    32    35    1
    29    29    30   ar
    30    30    31   ar
    31     4     5    1
    32     5     6    1
    33    19    20   ar
    34    20    15   ar
    35     6     1    1
    36    31    26   ar
    37    13    14    1
@<TRIPOS>MOLECULE
*****
 35 37 0 0 0
SMALL
GASTEIGER

@<TRIPOS>ATOM
      1 C         139.9407  143.6304  162.4996 C.3     1  UNL1        0.0528
      2 C         140.8537  142.4956  162.1410 C.3     1  UNL1        0.0242
      3 C         140.8333  141.2323  162.9494 C.3     1  UNL1        0.0728
      4 N         139.8999  141.1038  164.1166 N.3     1  UNL1       -0.2689
      5 C         138.9869  142.2386  164.4753 C.3     1  UNL1        0.0728
      6 C         139.0073  143.5019  163.6668 C.3     1  UNL1        0.0242
      7 C         139.2711  144.9716  162.4465 C.2     1  UNL1        0.0513
      8 O         140.0987  146.2214  162.3923 O.co2   1  UNL1       -0.5491
      9 O         137.7739  145.0630  162.4477 O.co2   1  UNL1       -0.5491
     10 C         140.6416  144.2246  161.3140 C.3     1  UNL1        0.0949
     11 C         140.6252  144.8785  158.7996 C.2     1  UNL1        0.2461
     12 O         142.1127  145.0674  158.8390 O.2     1  UNL1       -0.2701
     13 N         139.8896  144.4571  160.0371 N.am    1  UNL1       -0.3005
     14 H         138.9133  144.3332  160.0113 H       1  UNL1        0.1498
     15 C         139.0290  146.7260  155.6708 C.ar    1  UNL1        0.1419
     16 C         138.3693  145.5761  154.9689 C.ar    1  UNL1        0.0738
     17 C         138.4615  144.1938  155.5439 C.ar    1  UNL1        0.1419
     18 C         139.2135  143.9613  156.8208 C.ar    1  UNL1        0.0416
     19 C         139.8732  145.1111  157.5227 C.ar    1  UNL1        0.0594
     20 C         139.7810  146.4935  156.9477 C.ar    1  UNL1        0.0416
     21 C         140.0731  148.6620  154.2882 C.3     1  UNL1        0.2525
     22 O         138.9368  148.1083  155.0958 O.3     1  UNL1       -0.4713
     23 O         137.8017  143.0439  154.8420 O.3     1  UNL1       -0.4713
     24 C         137.0697  142.0018  155.6345 C.3     1  UNL1        0.2525
     25 C         139.8795  139.8405  164.9251 C.3     1  UNL1        0.0991
     26 C         140.6425  139.7626  166.2141 C.ar    1  UNL1       -0.0062
     27 C         139.9887  140.1773  167.4990 C.ar    1  UNL1       -0.0030
     28 C         140.7518  140.0994  168.7881 C.ar    1  UNL1        0.0036
     29 C         142.1686  139.6069  168.7924 C.ar    1  UNL1        0.0714
     30 C         142.8224  139.1923  167.5075 C.ar    1  UNL1        0.0036
     31 C         142.0593  139.2702  166.2185 C.ar    1  UNL1       -0.0030
     32 C         142.9317  139.5290  170.0814 C.3     1  UNL1        0.4186
     33 F         143.6947  139.4509  171.3704 F       1  UNL1       -0.1659
     34 F         142.5280  138.0923  170.2334 F       1  UNL1       -0.1659
     35 F         143.3353  140.9655  169.9293 F       1  UNL1       -0.1659
@<TRIPOS>UNITY_ATOM_ATTR
8 1
charge -1
@<TRIPOS>BOND
     1    21    22    1
     2    22    15    1
     3    15    16   ar
     4    16    17   ar
     5    17    23    1
     6    23    24    1
     7    17    18   ar
     8    18    19   ar
     9    19    11    1
    10    11    12    2
    11    11    13   am
    12    13    10    1
    13    10     1    1
    14     1     7    1
    15     7     8   ar
    16     7     9   ar
    17     1     2    1
    18     2     3    1
    19     3     4    1
    20     4    25    1
    21    25    26    1
    22    26    27   ar
    23    27    28   ar
    24    28    29   ar
    25    29    32    1
    26    32    33    1
    27    32    34    1
    28    32    35    1
    29    29    30   ar
    30    30    31   ar
    31     4     5    1
    32     5     6    1
    33    19    20   ar
    34    20    15   ar
    35     6     1    1
    36    31    26   ar
    37    13    14    1
@<TRIPOS>MOLECULE
*****
 35 37 0 0 0
SMALL
GASTEIGER

@<TRIPOS>ATOM
      1 C         138.5109  139.1048  162.4815 C.3     1  UNL1        0.0528
      2 C         138.9967  137.9131  163.2522 C.3     1  UNL1        0.0242
      3 C         139.0355  137.9542  164.7511 C.3     1  UNL1        0.0728
      4 N         138.5884  139.1870  165.4794 N.3     1  UNL1       -0.2689
      5 C         138.1025  140.3787  164.7087 C.3     1  UNL1        0.0728
      6 C         138.0638  140.3376  163.2098 C.3     1  UNL1        0.0242
      7 C         138.1349  139.9730  161.3175 C.2     1  UNL1        0.0513
      8 O         137.0080  139.5692  160.4137 O.co2   1  UNL1       -0.5491
      9 O         138.8860  141.2451  161.0574 O.co2   1  UNL1       -0.5491
     10 C         138.8274  138.1735  161.3490 C.3     1  UNL1        0.0949
     11 C         141.1952  138.4176  160.3078 C.2     1  UNL1        0.2461
     12 O         141.7928  137.7481  161.5098 O.2     1  UNL1       -0.2701
     13 N         139.7125  138.6303  160.2274 N.am    1  UNL1       -0.3005
     14 H         139.3203  139.0697  159.4386 H       1  UNL1        0.1498
     15 C         143.7286  140.6166  158.1874 C.ar    1  UNL1        0.1419
     16 C         143.8505  139.7879  156.9430 C.ar    1  UNL1        0.0738
     17 C         143.0872  138.5025  156.8203 C.ar    1  UNL1        0.1419
     18 C         142.2021  138.0457  157.9419 C.ar    1  UNL1        0.0416
     19 C         142.0803  138.8744  159.1862 C.ar    1  UNL1        0.0594
     20 C         142.8436  140.1598  159.3090 C.ar    1  UNL1        0.0416
     21 C         145.5494  142.2454  157.3034 C.3     1  UNL1        0.2525
     22 O         144.4919  141.9020  158.3102 O.3     1  UNL1       -0.4713
     23 O         143.2090  137.6738  155.5759 O.3     1  UNL1       -0.4713
     24 C         143.9503  136.3703  155.6124 C.3     1  UNL1        0.2525
     25 C         138.6271  139.2281  166.9783 C.3     1  UNL1        0.0991
     26 C         139.7064  139.9981  167.6798 C.ar    1  UNL1       -0.0062
     27 C         139.4931  140.4782  169.0849 C.ar    1  UNL1       -0.0030
     28 C         140.5724  141.2482  169.7865 C.ar    1  UNL1        0.0036
     29 C         141.8651  141.5381  169.0830 C.ar    1  UNL1        0.0714
     30 C         142.0785  141.0580  167.6780 C.ar    1  UNL1        0.0036
     31 C         140.9992  140.2880  166.9765 C.ar    1  UNL1       -0.0030
     32 C         142.9444  142.3080  169.7846 C.3     1  UNL1        0.4186
     33 F         144.0238  143.0780  170.4860 F       1  UNL1       -0.1659
     34 F         143.6594  142.4950  168.4792 F       1  UNL1       -0.1659
     35 F         142.2295  142.1211  171.0898 F       1  UNL1       -0.1659
@<TRIPOS>UNITY_ATOM_ATTR
8 1
charge -1
@<TRIPOS>BOND
     1    21    22    1
     2    22    15    1
     3    15    16   ar
     4    16    17   ar
     5    17    23    1
     6    23    24    1
     7    17    18   ar
     8    18    19   ar
     9    19    11    1
    10    11    12    2
    11    11    13   am
    12    13    10    1
    13    10     1    1
    14     1     7    1
    15     7     8   ar
    16     7     9   ar
    17     1     2    1
    18     2     3    1
    19     3     4    1
    20     4    25    1
    21    25    26    1
    22    26    27   ar
    23    27    28   ar
    24    28    29   ar
    25    29    32    1
    26    32    33    1
    27    32    34    1
    28    32    35    1
    29    29    30   ar
    30    30    31   ar
    31     4     5    1
    32     5     6    1
    33    19    20   ar
    34    20    15   ar
    35     6     1    1
    36    31    26   ar
    37    13    14    1
@<TRIPOS>MOLECULE
*****
 35 37 0 0 0
SMALL
GASTEIGER

@<TRIPOS>ATOM
      1 C         141.9897  138.9823  158.6947 C.3     1  UNL1        0.0528
      2 C         142.9456  138.0621  159.3943 C.3     1  UNL1        0.0242
      3 C         143.1028  138.1357  160.8843 C.3     1  UNL1        0.0728
      4 N         142.3040  139.1294  161.6745 N.3     1  UNL1       -0.2689
      5 C         141.3481  140.0496  160.9749 C.3     1  UNL1        0.0728
      6 C         141.1909  139.9760  159.4850 C.3     1  UNL1        0.0242
      7 C         141.2181  139.6362  157.5870 C.2     1  UNL1        0.0513
      8 O         141.1206  138.9705  156.2463 O.co2   1  UNL1       -0.5491
      9 O         140.5440  140.9558  157.8199 O.co2   1  UNL1       -0.5491
     10 C         142.5205  138.2157  157.5198 C.3     1  UNL1        0.0949
     11 C         143.3052  135.9091  156.6173 C.2     1  UNL1        0.2461
     12 O         144.3710  136.5879  155.8091 O.2     1  UNL1       -0.2701
     13 N         142.3799  136.7230  157.4727 N.am    1  UNL1       -0.3005
     14 H         141.6803  136.2775  158.0031 H       1  UNL1        0.1498
     15 C         143.9833  132.0558  157.2823 C.ar    1  UNL1        0.1419
     16 C         142.8833  131.4312  156.4760 C.ar    1  UNL1        0.0738
     17 C         141.9241  132.2992  155.7169 C.ar    1  UNL1        0.1419
     18 C         142.0647  133.7918  155.7640 C.ar    1  UNL1        0.0416
     19 C         143.1646  134.4165  156.5702 C.ar    1  UNL1        0.0594
     20 C         144.1239  133.5485  157.3294 C.ar    1  UNL1        0.0416
     21 C         144.5648  129.7785  158.3893 C.3     1  UNL1        0.2525
     22 O         144.9426  131.1878  158.0414 O.3     1  UNL1       -0.4713
     23 O         140.8241  131.6746  154.9106 O.3     1  UNL1       -0.4713
     24 C         140.8968  130.2227  154.5410 C.3     1  UNL1        0.2525
     25 C         142.4612  139.2030  163.1645 C.3     1  UNL1        0.0991
     26 C         141.2910  138.9143  164.0572 C.ar    1  UNL1       -0.0062
     27 C         140.9971  139.8121  165.2225 C.ar    1  UNL1       -0.0030
     28 C         139.8269  139.5234  166.1154 C.ar    1  UNL1        0.0036
     29 C         138.9504  138.3370  165.8430 C.ar    1  UNL1        0.0714
     30 C         139.2442  137.4392  164.6777 C.ar    1  UNL1        0.0036
     31 C         140.4145  137.7279  163.7849 C.ar    1  UNL1       -0.0030
     32 C         137.7802  138.0483  166.7358 C.3     1  UNL1        0.4186
     33 F         136.6099  137.7597  167.6286 F       1  UNL1       -0.1659
     34 F         137.7888  139.4722  167.2074 F       1  UNL1       -0.1659
     35 F         137.7715  136.6245  166.2642 F       1  UNL1       -0.1659
@<TRIPOS>UNITY_ATOM_ATTR
8 1
charge -1
@<TRIPOS>BOND
     1    21    22    1
     2    22    15    1
     3    15    16   ar
     4    16    17   ar
     5    17    23    1
     6    23    24    1
     7    17    18   ar
     8    18    19   ar
     9    19    11    1
    10    11    12    2
    11    11    13   am
    12    13    10    1
    13    10     1    1
    14     1     7    1
    15     7     8   ar
    16     7     9   ar
    17     1     2    1
    18     2     3    1
    19     3     4    1
    20     4    25    1
    21    25    26    1
    22    26    27   ar
    23    27    28   ar
    24    28    29   ar
    25    29    32    1
    26    32    33    1
    27    32    34    1
    28    32    35    1
    29    29    30   ar
    30    30    31   ar
    31     4     5    1
    32     5     6    1
    33    19    20   ar
    34    20    15   ar
    35     6     1    1
    36    31    26   ar
    37    13    14    1
@<TRIPOS>MOLECULE
*****
 35 37 0 0 0
SMALL
GASTEIGER

@<TRIPOS>ATOM
      1 C         140.8525  144.6349  161.3175 C.3     1  UNL1        0.0528
      2 C         141.7193  143.5435  161.8719 C.3     1  UNL1        0.0242
      3 C         141.5418  143.0928  163.2915 C.3     1  UNL1        0.0728
      4 N         140.4974  143.7336  164.1568 N.3     1  UNL1       -0.2689
      5 C         139.6306  144.8251  163.6024 C.3     1  UNL1        0.0728
      6 C         139.8081  145.2758  162.1828 C.3     1  UNL1        0.0242
      7 C         140.2792  145.6230  160.3454 C.2     1  UNL1        0.0513
      8 O         139.2256  146.5917  160.7940 O.co2   1  UNL1       -0.5491
      9 O         140.7597  145.6424  158.9245 O.co2   1  UNL1       -0.5491
     10 C         141.6978  144.3372  160.1147 C.3     1  UNL1        0.0949
     11 C         141.2191  142.0074  159.0693 C.2     1  UNL1        0.2461
     12 O         139.8825  142.4951  158.5943 O.2     1  UNL1       -0.2701
     13 N         142.1268  142.9285  159.8295 N.am    1  UNL1       -0.3005
     14 H         143.0040  142.6084  160.1412 H       1  UNL1        0.1498
     15 C         142.7834  138.3925  159.5551 C.ar    1  UNL1        0.1419
     16 C         142.5061  137.7811  158.2137 C.ar    1  UNL1        0.0738
     17 C         141.7999  138.5784  157.1576 C.ar    1  UNL1        0.1419
     18 C         141.3709  139.9871  157.4428 C.ar    1  UNL1        0.0416
     19 C         141.6481  140.5986  158.7841 C.ar    1  UNL1        0.0594
     20 C         142.3544  139.8013  159.8403 C.ar    1  UNL1        0.0416
     21 C         143.5305  138.0937  162.0254 C.3     1  UNL1        0.2525
     22 O         143.4896  137.5952  160.6113 O.3     1  UNL1       -0.4713
     23 O         141.5226  137.9669  155.8162 O.3     1  UNL1       -0.4713
     24 C         140.7663  136.6749  155.7227 C.3     1  UNL1        0.2525
     25 C         140.3199  143.2830  165.5764 C.3     1  UNL1        0.0991
     26 C         139.7078  141.9449  165.8676 C.ar    1  UNL1       -0.0062
     27 C         140.0725  141.2106  167.1238 C.ar    1  UNL1       -0.0030
     28 C         139.4604  139.8725  167.4150 C.ar    1  UNL1        0.0036
     29 C         138.4836  139.2686  166.4500 C.ar    1  UNL1        0.0714
     30 C         138.1189  140.0028  165.1938 C.ar    1  UNL1        0.0036
     31 C         138.7310  141.3409  164.9026 C.ar    1  UNL1       -0.0030
     32 C         137.8715  137.9305  166.7411 C.3     1  UNL1        0.4186
     33 F         137.2593  136.5925  167.0324 F       1  UNL1       -0.1659
     34 F         137.1303  138.5225  167.9032 F       1  UNL1       -0.1659
     35 F         138.6126  137.3386  165.5792 F       1  UNL1       -0.1659
@<TRIPOS>UNITY_ATOM_ATTR
8 1
charge -1
@<TRIPOS>BOND
     1    21    22    1
     2    22    15    1
     3    15    16   ar
     4    16    17   ar
     5    17    23    1
     6    23    24    1
     7    17    18   ar
     8    18    19   ar
     9    19    11    1
    10    11    12    2
    11    11    13   am
    12    13    10    1
    13    10     1    1
    14     1     7    1
    15     7     8   ar
    16     7     9   ar
    17     1     2    1
    18     2     3    1
    19     3     4    1
    20     4    25    1
    21    25    26    1
    22    26    27   ar
    23    27    28   ar
    24    28    29   ar
    25    29    32    1
    26    32    33    1
    27    32    34    1
    28    32    35    1
    29    29    30   ar
    30    30    31   ar
    31     4     5    1
    32     5     6    1
    33    19    20   ar
    34    20    15   ar
    35     6     1    1
    36    31    26   ar
    37    13    14    1
@<TRIPOS>MOLECULE
*****
 35 37 0 0 0
SMALL
GASTEIGER

@<TRIPOS>ATOM
      1 C         143.1206  138.7076  162.6012 C.3     1  UNL1        0.0528
      2 C         142.0188  138.0523  163.3800 C.3     1  UNL1        0.0242
      3 C         142.0747  138.0228  164.8787 C.3     1  UNL1        0.0728
      4 N         143.2325  138.6487  165.5985 N.3     1  UNL1       -0.2689
      5 C         144.3342  139.3040  164.8196 C.3     1  UNL1        0.0728
      6 C         144.2783  139.3335  163.3210 C.3     1  UNL1        0.0242
      7 C         143.9163  139.2057  161.4312 C.2     1  UNL1        0.0513
      8 O         144.2853  140.6566  161.3382 O.co2   1  UNL1       -0.5491
      9 O         144.3429  138.2528  160.3542 O.co2   1  UNL1       -0.5491
     10 C         142.2392  138.2548  161.4751 C.3     1  UNL1        0.0949
     11 C         140.2136  139.6394  160.6207 C.2     1  UNL1        0.2461
     12 O         139.3431  139.0128  161.6693 O.2     1  UNL1       -0.2701
     13 N         141.6618  139.2604  160.5236 N.am    1  UNL1       -0.3005
     14 H         142.2331  139.6716  159.8354 H       1  UNL1        0.1498
     15 C         139.3014  143.1147  158.9355 C.ar    1  UNL1        0.1419
     16 C         138.4812  142.6561  157.7663 C.ar    1  UNL1        0.0738
     17 C         138.2385  141.1920  157.5486 C.ar    1  UNL1        0.1419
     18 C         138.8160  140.1864  158.5000 C.ar    1  UNL1        0.0416
     19 C         139.6361  140.6449  159.6692 C.ar    1  UNL1        0.0594
     20 C         139.8788  142.1091  159.8870 C.ar    1  UNL1        0.0416
     21 C         140.6683  145.2673  158.4376 C.3     1  UNL1        0.2525
     22 O         139.5440  144.5788  159.1532 O.3     1  UNL1       -0.4713
     23 O         137.4183  140.7334  156.3793 O.3     1  UNL1       -0.4713
     24 C         135.9330  140.9428  156.3769 C.3     1  UNL1        0.2525
     25 C         143.2883  138.6192  167.0971 C.3     1  UNL1        0.0991
     26 C         142.4739  139.5920  167.8973 C.ar    1  UNL1       -0.0062
     27 C         141.8510  140.7797  167.2254 C.ar    1  UNL1       -0.0030
     28 C         141.0365  141.7525  168.0256 C.ar    1  UNL1        0.0036
     29 C         140.8450  141.5377  169.4977 C.ar    1  UNL1        0.0714
     30 C         141.4679  140.3500  170.1696 C.ar    1  UNL1        0.0036
     31 C         142.2823  139.3772  169.3694 C.ar    1  UNL1       -0.0030
     32 C         140.0305  142.5105  170.2979 C.3     1  UNL1        0.4186
     33 F         139.2162  143.4834  171.0981 F       1  UNL1       -0.1659
     34 F         141.1774  143.4773  170.2896 F       1  UNL1       -0.1659
     35 F         138.8838  141.5437  170.3061 F       1  UNL1       -0.1659
@<TRIPOS>UNITY_ATOM_ATTR
8 1
charge -1
@<TRIPOS>BOND
     1    21    22    1
     2    22    15    1
     3    15    16   ar
     4    16    17   ar
     5    17    23    1
     6    23    24    1
     7    17    18   ar
     8    18    19   ar
     9    19    11    1
    10    11    12    2
    11    11    13   am
    12    13    10    1
    13    10     1    1
    14     1     7    1
    15     7     8   ar
    16     7     9   ar
    17     1     2    1
    18     2     3    1
    19     3     4    1
    20     4    25    1
    21    25    26    1
    22    26    27   ar
    23    27    28   ar
    24    28    29   ar
    25    29    32    1
    26    32    33    1
    27    32    34    1
    28    32    35    1
    29    29    30   ar
    30    30    31   ar
    31     4     5    1
    32     5     6    1
    33    19    20   ar
    34    20    15   ar
    35     6     1    1
    36    31    26   ar
    37    13    14    1
@<TRIPOS>MOLECULE
*****
 35 37 0 0 0
SMALL
GASTEIGER

@<TRIPOS>ATOM
      1 C         138.2846  141.4927  162.2318 C.3     1  UNL1        0.0528
      2 C         138.5310  140.0308  162.4594 C.3     1  UNL1        0.0242
      3 C         138.7633  139.5168  163.8493 C.3     1  UNL1        0.0728
      4 N         138.7492  140.4649  165.0117 N.3     1  UNL1       -0.2689
      5 C         138.5028  141.9268  164.7841 C.3     1  UNL1        0.0728
      6 C         138.2705  142.4408  163.3942 C.3     1  UNL1        0.0242
      7 C         138.0100  142.7809  161.5139 C.2     1  UNL1        0.0513
      8 O         138.0571  142.8292  160.0155 O.co2   1  UNL1       -0.5491
      9 O         137.6883  144.0207  162.2946 O.co2   1  UNL1       -0.5491
     10 C         138.2033  140.9920  160.8202 C.3     1  UNL1        0.0949
     11 C         139.3038  139.8087  158.7858 C.2     1  UNL1        0.2461
     12 O         138.0286  139.9567  158.0100 O.2     1  UNL1       -0.2701
     13 N         139.3912  140.3264  160.1910 N.am    1  UNL1       -0.3005
     14 H         140.2281  140.2292  160.7002 H       1  UNL1        0.1498
     15 C         143.0413  139.0921  157.6599 C.ar    1  UNL1        0.1419
     16 C         142.8672  137.8116  156.8981 C.ar    1  UNL1        0.0738
     17 C         141.5054  137.1970  156.7655 C.ar    1  UNL1        0.1419
     18 C         140.3176  137.8626  157.3948 C.ar    1  UNL1        0.0416
     19 C         140.4916  139.1430  158.1566 C.ar    1  UNL1        0.0594
     20 C         141.8534  139.7578  158.2891 C.ar    1  UNL1        0.0416
     21 C         144.5814  141.1835  157.5989 C.3     1  UNL1        0.2525
     22 O         144.4031  139.7068  157.7924 O.3     1  UNL1       -0.4713
     23 O         141.3314  135.9165  156.0037 O.3     1  UNL1       -0.4713
     24 C         140.5849  135.9134  154.7027 C.3     1  UNL1        0.2525
     25 C         138.9815  139.9509  166.4016 C.3     1  UNL1        0.0991
     26 C         139.9003  140.6881  167.3300 C.ar    1  UNL1       -0.0062
     27 C         141.0654  141.4558  166.7792 C.ar    1  UNL1       -0.0030
     28 C         141.9843  142.1931  167.7077 C.ar    1  UNL1        0.0036
     29 C         141.7381  142.1628  169.1870 C.ar    1  UNL1        0.0714
     30 C         140.5730  141.3951  169.7379 C.ar    1  UNL1        0.0036
     31 C         139.6542  140.6579  168.8094 C.ar    1  UNL1       -0.0030
     32 C         142.6570  142.9000  170.1155 C.3     1  UNL1        0.4186
     33 F         143.5757  143.6374  171.0440 F       1  UNL1       -0.1659
     34 F         141.6700  144.0266  170.1976 F       1  UNL1       -0.1659
     35 F         143.6439  141.7735  170.0335 F       1  UNL1       -0.1659
@<TRIPOS>UNITY_ATOM_ATTR
8 1
charge -1
@<TRIPOS>BOND
     1    21    22    1
     2    22    15    1
     3    15    16   ar
     4    16    17   ar
     5    17    23    1
     6    23    24    1
     7    17    18   ar
     8    18    19   ar
     9    19    11    1
    10    11    12    2
    11    11    13   am
    12    13    10    1
    13    10     1    1
    14     1     7    1
    15     7     8   ar
    16     7     9   ar
    17     1     2    1
    18     2     3    1
    19     3     4    1
    20     4    25    1
    21    25    26    1
    22    26    27   ar
    23    27    28   ar
    24    28    29   ar
    25    29    32    1
    26    32    33    1
    27    32    34    1
    28    32    35    1
    29    29    30   ar
    30    30    31   ar
    31     4     5    1
    32     5     6    1
    33    19    20   ar
    34    20    15   ar
    35     6     1    1
    36    31    26   ar
    37    13    14    1
