@<TRIPOS>MOLECULE
*****
 44 48 0 0 0
SMALL
GASTEIGER

@<TRIPOS>ATOM
      1 C         140.9655  141.7304  165.8007 C.3     1  UNL1        0.0764
      2 C         140.8565  142.6447  164.6165 C.ar    1  UNL1        0.0181
      3 C         141.5543  142.2983  163.3347 C.ar    1  UNL1       -0.0009
      4 C         141.4452  143.2125  162.1505 C.ar    1  UNL1        0.0006
      5 C         142.1431  142.8661  160.8687 C.ar    1  UNL1        0.0103
      6 C         142.0340  143.7804  159.6846 C.ar    1  UNL1        0.0684
      7 C         141.2271  145.0411  159.7823 C.ar    1  UNL1        0.0103
      8 C         140.5292  145.3875  161.0641 C.ar    1  UNL1        0.0008
      9 C         140.6383  144.4732  162.2482 C.ar    1  UNL1        0.0030
     10 C         139.9405  144.8196  163.5300 C.ar    1  UNL1        0.0366
     11 C         140.0495  143.9054  164.7141 C.ar    1  UNL1        0.1351
     12 C         142.7319  143.4340  158.4028 C.1     1  UNL1        0.1004
     13 N         143.4297  143.0876  157.1210 N.1     1  UNL1       -0.1908
     14 O         139.3517  144.2518  165.9960 O.3     1  UNL1       -0.4717
     15 C         138.1782  145.1860  165.9823 C.3     1  UNL1        0.2525
     16 C         138.3753  139.1919  167.4121 C.ar    1  UNL1        0.2272
     17 C         139.3268  140.3418  167.2622 C.ar    1  UNL1        0.0540
     18 C         140.0141  140.5805  165.9505 C.ar    1  UNL1       -0.0064
     19 C         139.7500  139.6692  164.7887 C.ar    1  UNL1        0.0540
     20 C         138.7986  138.5193  164.9385 C.ar    1  UNL1        0.2270
     21 N         138.1112  138.2806  166.2503 N.ar    1  UNL1       -0.1767
     22 C         138.0691  139.7620  169.9282 C.3     1  UNL1        0.2542
     23 O         137.6880  138.9532  168.7238 O.3     1  UNL1       -0.4561
     24 O         138.5345  137.6081  163.7767 O.3     1  UNL1       -0.4640
     25 C         138.7855  138.0855  162.3769 C.3     1  UNL1        0.1678
     26 C         140.1451  137.9275  161.7632 C.3     1  UNL1        0.0473
     27 C         137.6771  138.7207  161.5910 C.3     1  UNL1        0.0473
     28 C         142.0260  141.9661  166.8350 C.3     1  UNL1        0.1186
     29 O         141.1116  142.9105  167.5573 O.3     1  UNL1       -0.3819
     30 H         141.0165  143.7265  167.0415 H       1  UNL1        0.2107
     31 C         142.9404  141.0216  166.1126 C.ar    1  UNL1        0.0369
     32 C         142.8700  139.5494  166.3910 C.ar    1  UNL1        0.0010
     33 C         143.7844  138.6049  165.6686 C.ar    1  UNL1       -0.0000
     34 C         144.7693  139.1327  164.6679 C.ar    1  UNL1        0.0031
     35 C         144.8397  140.6049  164.3895 C.ar    1  UNL1        0.0375
     36 C         145.7017  141.4113  163.4640 C.ar    1  UNL1        0.0437
     37 C         145.3201  142.8541  163.6143 C.ar    1  UNL1        0.1796
     38 O         144.2222  142.9395  164.6328 O.2     1  UNL1       -0.4507
     39 C         143.9253  141.5494  165.1119 C.ar    1  UNL1        0.1436
     40 C         143.0865  142.2017  167.8693 C.3     1  UNL1        0.0492
     41 C         142.6980  142.5228  169.2821 C.3     1  UNL1        0.0750
     42 N         142.0167  141.4870  170.1265 N.3     1  UNL1       -0.2702
     43 C         140.9217  141.8896  171.0692 C.3     1  UNL1        0.0897
     44 C         142.4305  140.0485  170.0280 C.3     1  UNL1        0.0897
@<TRIPOS>BOND
     1    22    23    1
     2    23    16    1
     3    16    17   ar
     4    17    18   ar
     5     1    18    1
     6     1     2    1
     7     2     3   ar
     8     3     4   ar
     9     4     5   ar
    10     5     6   ar
    11     6    12    1
    12    12    13    3
    13     6     7   ar
    14     7     8   ar
    15     8     9   ar
    16     9    10   ar
    17    10    11   ar
    18    11    14    1
    19    14    15    1
    20     1    28    1
    21    28    29    1
    22    28    40    1
    23    40    41    1
    24    41    42    1
    25    42    43    1
    26    42    44    1
    27    28    31    1
    28    31    32   ar
    29    32    33   ar
    30    33    34   ar
    31    34    35   ar
    32    35    36   ar
    33    36    37   ar
    34    37    38   ar
    35    38    39   ar
    36    18    19   ar
    37    19    20   ar
    38    20    24    1
    39    24    25    1
    40    25    26    1
    41    25    27    1
    42    20    21   ar
    43    21    16   ar
    44    11     2   ar
    45    39    31   ar
    46     9     4   ar
    47    39    35   ar
    48    29    30    1
@<TRIPOS>MOLECULE
*****
 44 48 0 0 0
SMALL
GASTEIGER

@<TRIPOS>ATOM
      1 C         140.2495  140.8497  162.6115 C.3     1  UNL1        0.0764
      2 C         139.8218  140.5144  164.0096 C.ar    1  UNL1        0.0181
      3 C         140.5232  141.1396  165.1788 C.ar    1  UNL1       -0.0009
      4 C         140.0955  140.8042  166.5769 C.ar    1  UNL1        0.0006
      5 C         140.7970  141.4294  167.7461 C.ar    1  UNL1        0.0103
      6 C         140.3693  141.0940  169.1442 C.ar    1  UNL1        0.0684
      7 C         139.2401  140.1334  169.3730 C.ar    1  UNL1        0.0103
      8 C         138.5387  139.5082  168.2038 C.ar    1  UNL1        0.0008
      9 C         138.9664  139.8436  166.8057 C.ar    1  UNL1        0.0030
     10 C         138.2650  139.2184  165.6364 C.ar    1  UNL1        0.0366
     11 C         138.6927  139.5538  164.2384 C.ar    1  UNL1        0.1351
     12 C         141.0707  141.7192  170.3135 C.1     1  UNL1        0.1004
     13 N         141.7721  142.3444  171.4827 N.1     1  UNL1       -0.1908
     14 O         137.9912  138.9286  163.0691 O.3     1  UNL1       -0.4717
     15 C         138.5186  137.6587  162.4696 C.3     1  UNL1        0.2525
     16 C         144.1619  140.5259  162.0298 C.ar    1  UNL1        0.2272
     17 C         142.8415  141.0143  162.5477 C.ar    1  UNL1        0.0540
     18 C         141.5698  140.3613  162.0935 C.ar    1  UNL1       -0.0064
     19 C         141.6183  139.2200  161.1214 C.ar    1  UNL1        0.0540
     20 C         142.9386  138.7317  160.6034 C.ar    1  UNL1        0.2270
     21 N         144.2104  139.3846  161.0576 N.ar    1  UNL1       -0.1767
     22 C         145.5624  141.6685  163.8959 C.3     1  UNL1        0.2542
     23 O         145.4336  141.1788  162.4840 O.3     1  UNL1       -0.4561
     24 O         142.9871  137.5904  159.6313 O.3     1  UNL1       -0.4640
     25 C         142.7948  137.8449  158.1655 C.3     1  UNL1        0.1678
     26 C         142.8137  139.2496  157.6395 C.3     1  UNL1        0.0473
     27 C         142.5836  136.6950  157.2259 C.3     1  UNL1        0.0473
     28 C         139.3568  141.6735  161.7313 C.3     1  UNL1        0.1186
     29 O         139.3590  140.5795  160.7051 O.3     1  UNL1       -0.3819
     30 H         140.2307  140.5350  160.2818 H       1  UNL1        0.2107
     31 C         139.3546  142.7675  162.7576 C.ar    1  UNL1        0.0369
     32 C         138.1710  142.9455  163.6615 C.ar    1  UNL1        0.0010
     33 C         138.1688  144.0395  164.6878 C.ar    1  UNL1       -0.0000
     34 C         139.3502  144.9556  164.8100 C.ar    1  UNL1        0.0031
     35 C         140.5339  144.7776  163.9060 C.ar    1  UNL1        0.0375
     36 C         141.8319  145.5209  163.7938 C.ar    1  UNL1        0.0437
     37 C         142.6364  144.8863  162.6983 C.ar    1  UNL1        0.1796
     38 O         141.8355  143.7507  162.1333 O.2     1  UNL1       -0.4507
     39 C         140.5361  143.6836  162.8798 C.ar    1  UNL1        0.1436
     40 C         138.4642  142.4973  160.8512 C.3     1  UNL1        0.0492
     41 C         138.8540  142.7643  159.4275 C.3     1  UNL1        0.0750
     42 N         140.1626  143.4301  159.1205 N.3     1  UNL1       -0.2702
     43 C         141.3543  142.6024  158.7403 C.3     1  UNL1        0.0897
     44 C         140.2794  144.9239  159.1937 C.3     1  UNL1        0.0897
@<TRIPOS>BOND
     1    22    23    1
     2    23    16    1
     3    16    17   ar
     4    17    18   ar
     5     1    18    1
     6     1     2    1
     7     2     3   ar
     8     3     4   ar
     9     4     5   ar
    10     5     6   ar
    11     6    12    1
    12    12    13    3
    13     6     7   ar
    14     7     8   ar
    15     8     9   ar
    16     9    10   ar
    17    10    11   ar
    18    11    14    1
    19    14    15    1
    20     1    28    1
    21    28    29    1
    22    28    40    1
    23    40    41    1
    24    41    42    1
    25    42    43    1
    26    42    44    1
    27    28    31    1
    28    31    32   ar
    29    32    33   ar
    30    33    34   ar
    31    34    35   ar
    32    35    36   ar
    33    36    37   ar
    34    37    38   ar
    35    38    39   ar
    36    18    19   ar
    37    19    20   ar
    38    20    24    1
    39    24    25    1
    40    25    26    1
    41    25    27    1
    42    20    21   ar
    43    21    16   ar
    44    11     2   ar
    45    39    31   ar
    46     9     4   ar
    47    39    35   ar
    48    29    30    1
@<TRIPOS>MOLECULE
*****
 44 48 0 0 0
SMALL
GASTEIGER

@<TRIPOS>ATOM
      1 C         142.1155  142.3847  162.3930 C.3     1  UNL1        0.0764
      2 C         142.3782  142.3916  163.8698 C.ar    1  UNL1        0.0181
      3 C         141.2851  142.0215  164.8279 C.ar    1  UNL1       -0.0009
      4 C         141.5479  142.0284  166.3047 C.ar    1  UNL1        0.0006
      5 C         140.4547  141.6583  167.2628 C.ar    1  UNL1        0.0103
      6 C         140.7175  141.6652  168.7395 C.ar    1  UNL1        0.0684
      7 C         142.0735  142.0424  169.2582 C.ar    1  UNL1        0.0103
      8 C         143.1667  142.4125  168.3002 C.ar    1  UNL1        0.0008
      9 C         142.9039  142.4055  166.8234 C.ar    1  UNL1        0.0030
     10 C         143.9971  142.7757  165.8653 C.ar    1  UNL1        0.0366
     11 C         143.7342  142.7687  164.3885 C.ar    1  UNL1        0.1351
     12 C         139.6243  141.2951  169.6976 C.1     1  UNL1        0.1004
     13 N         138.5311  140.9249  170.6557 N.1     1  UNL1       -0.1908
     14 O         144.8275  143.1389  163.4304 O.3     1  UNL1       -0.4717
     15 C         145.7320  142.0773  162.8782 C.3     1  UNL1        0.2525
     16 C         143.4042  139.9351  159.5489 C.ar    1  UNL1        0.2272
     17 C         143.1735  141.1848  160.3459 C.ar    1  UNL1        0.0540
     18 C         142.3461  141.1350  161.5960 C.ar    1  UNL1       -0.0064
     19 C         141.7493  139.8356  162.0492 C.ar    1  UNL1        0.0540
     20 C         141.9800  138.5860  161.2523 C.ar    1  UNL1        0.2270
     21 N         142.8074  138.6357  160.0021 N.ar    1  UNL1       -0.1767
     22 C         143.5622  140.0051  156.9567 C.3     1  UNL1        0.2542
     23 O         144.2317  139.9849  158.2988 O.3     1  UNL1       -0.4561
     24 O         141.3832  137.2866  161.7054 O.3     1  UNL1       -0.4640
     25 C         140.5458  137.2391  162.9491 C.3     1  UNL1        0.1678
     26 C         139.0840  137.5686  162.8820 C.3     1  UNL1        0.0473
     27 C         141.1703  136.8622  164.2598 C.3     1  UNL1        0.0473
     28 C         141.6220  143.6274  161.7132 C.3     1  UNL1        0.1186
     29 O         143.0365  144.0210  161.4060 O.3     1  UNL1       -0.3819
     30 H         143.4823  144.2899  162.2245 H       1  UNL1        0.2107
     31 C         140.2075  143.2338  162.0203 C.ar    1  UNL1        0.0369
     32 C         139.4930  142.2544  161.1371 C.ar    1  UNL1        0.0010
     33 C         138.0785  141.8607  161.4442 C.ar    1  UNL1       -0.0000
     34 C         137.3786  142.4465  162.6345 C.ar    1  UNL1        0.0031
     35 C         138.0932  143.4259  163.5178 C.ar    1  UNL1        0.0375
     36 C         137.6642  144.1638  164.7513 C.ar    1  UNL1        0.0437
     37 C         138.8134  145.0134  165.2065 C.ar    1  UNL1        0.1796
     38 O         139.9529  144.8007  164.2543 O.2     1  UNL1       -0.4507
     39 C         139.5076  143.8196  163.2106 C.ar    1  UNL1        0.1436
     40 C         141.1286  144.8701  161.0334 C.3     1  UNL1        0.0492
     41 C         141.6412  145.2339  159.6714 C.3     1  UNL1        0.0750
     42 N         141.4906  144.2706  158.5314 N.3     1  UNL1       -0.2702
     43 C         142.7078  143.7043  157.8623 C.3     1  UNL1        0.0897
     44 C         140.1228  143.8736  158.0607 C.3     1  UNL1        0.0897
@<TRIPOS>BOND
     1    22    23    1
     2    23    16    1
     3    16    17   ar
     4    17    18   ar
     5     1    18    1
     6     1     2    1
     7     2     3   ar
     8     3     4   ar
     9     4     5   ar
    10     5     6   ar
    11     6    12    1
    12    12    13    3
    13     6     7   ar
    14     7     8   ar
    15     8     9   ar
    16     9    10   ar
    17    10    11   ar
    18    11    14    1
    19    14    15    1
    20     1    28    1
    21    28    29    1
    22    28    40    1
    23    40    41    1
    24    41    42    1
    25    42    43    1
    26    42    44    1
    27    28    31    1
    28    31    32   ar
    29    32    33   ar
    30    33    34   ar
    31    34    35   ar
    32    35    36   ar
    33    36    37   ar
    34    37    38   ar
    35    38    39   ar
    36    18    19   ar
    37    19    20   ar
    38    20    24    1
    39    24    25    1
    40    25    26    1
    41    25    27    1
    42    20    21   ar
    43    21    16   ar
    44    11     2   ar
    45    39    31   ar
    46     9     4   ar
    47    39    35   ar
    48    29    30    1
@<TRIPOS>MOLECULE
*****
 44 48 0 0 0
SMALL
GASTEIGER

@<TRIPOS>ATOM
      1 C         142.1587  141.1030  163.5589 C.3     1  UNL1        0.0764
      2 C         142.0418  141.2632  165.0458 C.ar    1  UNL1        0.0181
      3 C         140.8525  140.7043  165.7691 C.ar    1  UNL1       -0.0009
      4 C         140.7356  140.8644  167.2560 C.ar    1  UNL1        0.0006
      5 C         139.5463  140.3055  167.9793 C.ar    1  UNL1        0.0103
      6 C         139.4294  140.4657  169.4661 C.ar    1  UNL1        0.0684
      7 C         140.5018  141.1847  170.2296 C.ar    1  UNL1        0.0103
      8 C         141.6911  141.7436  169.5063 C.ar    1  UNL1        0.0008
      9 C         141.8080  141.5835  168.0195 C.ar    1  UNL1        0.0030
     10 C         142.9973  142.1424  167.2961 C.ar    1  UNL1        0.0366
     11 C         143.1142  141.9822  165.8093 C.ar    1  UNL1        0.1351
     12 C         138.2401  139.9068  170.1895 C.1     1  UNL1        0.1004
     13 N         137.0509  139.3479  170.9128 N.1     1  UNL1       -0.1908
     14 O         144.3035  142.5411  165.0859 O.3     1  UNL1       -0.4717
     15 C         144.2919  143.9639  164.6109 C.3     1  UNL1        0.2525
     16 C         139.6902  143.7758  161.9738 C.ar    1  UNL1        0.2272
     17 C         140.2398  142.7205  162.8873 C.ar    1  UNL1        0.0540
     18 C         141.6092  142.1582  162.6454 C.ar    1  UNL1       -0.0064
     19 C         142.4290  142.6510  161.4899 C.ar    1  UNL1        0.0540
     20 C         141.8794  143.7062  160.5764 C.ar    1  UNL1        0.2270
     21 N         140.5100  144.2686  160.8184 N.ar    1  UNL1       -0.1767
     22 C         137.6165  144.0657  163.5117 C.3     1  UNL1        0.2542
     23 O         138.3208  144.3381  162.2157 O.3     1  UNL1       -0.4561
     24 O         142.6992  144.1990  159.4210 O.3     1  UNL1       -0.4640
     25 C         142.0929  144.2788  158.0512 C.3     1  UNL1        0.1678
     26 C         142.1359  145.5683  157.2861 C.3     1  UNL1        0.0473
     27 C         141.4438  143.0693  157.4467 C.3     1  UNL1        0.0473
     28 C         142.8253  139.8876  162.9856 C.3     1  UNL1        0.1186
     29 O         144.0815  140.6784  162.7697 O.3     1  UNL1       -0.3819
     30 H         143.9459  141.3094  162.0456 H       1  UNL1        0.2107
     31 C         141.5691  139.0969  163.2016 C.ar    1  UNL1        0.0369
     32 C         141.4150  138.2554  164.4336 C.ar    1  UNL1        0.0010
     33 C         140.1588  137.4646  164.6496 C.ar    1  UNL1       -0.0000
     34 C         139.0567  137.5153  163.6334 C.ar    1  UNL1        0.0031
     35 C         139.2107  138.3568  162.4013 C.ar    1  UNL1        0.0375
     36 C         138.3019  138.6024  161.2335 C.ar    1  UNL1        0.0437
     37 C         138.9964  139.5450  160.2958 C.ar    1  UNL1        0.1796
     38 O         140.3345  139.8820  160.8841 O.2     1  UNL1       -0.4507
     39 C         140.4669  139.1476  162.1854 C.ar    1  UNL1        0.1436
     40 C         143.4918  138.6723  162.4123 C.3     1  UNL1        0.0492
     41 C         144.3059  138.7850  161.1575 C.3     1  UNL1        0.0750
     42 N         143.6231  138.9665  159.8343 N.3     1  UNL1       -0.2702
     43 C         142.7697  137.8676  159.2738 C.3     1  UNL1        0.0897
     44 C         143.7937  140.2468  159.0716 C.3     1  UNL1        0.0897
@<TRIPOS>BOND
     1    22    23    1
     2    23    16    1
     3    16    17   ar
     4    17    18   ar
     5     1    18    1
     6     1     2    1
     7     2     3   ar
     8     3     4   ar
     9     4     5   ar
    10     5     6   ar
    11     6    12    1
    12    12    13    3
    13     6     7   ar
    14     7     8   ar
    15     8     9   ar
    16     9    10   ar
    17    10    11   ar
    18    11    14    1
    19    14    15    1
    20     1    28    1
    21    28    29    1
    22    28    40    1
    23    40    41    1
    24    41    42    1
    25    42    43    1
    26    42    44    1
    27    28    31    1
    28    31    32   ar
    29    32    33   ar
    30    33    34   ar
    31    34    35   ar
    32    35    36   ar
    33    36    37   ar
    34    37    38   ar
    35    38    39   ar
    36    18    19   ar
    37    19    20   ar
    38    20    24    1
    39    24    25    1
    40    25    26    1
    41    25    27    1
    42    20    21   ar
    43    21    16   ar
    44    11     2   ar
    45    39    31   ar
    46     9     4   ar
    47    39    35   ar
    48    29    30    1
@<TRIPOS>MOLECULE
*****
 44 48 0 0 0
SMALL
GASTEIGER

@<TRIPOS>ATOM
      1 C         142.1087  140.7588  162.3617 C.3     1  UNL1        0.0764
      2 C         142.2765  140.5246  163.8338 C.ar    1  UNL1        0.0181
      3 C         141.0748  140.5003  164.7312 C.ar    1  UNL1       -0.0009
      4 C         141.2426  140.2661  166.2033 C.ar    1  UNL1        0.0006
      5 C         140.0409  140.2418  167.1006 C.ar    1  UNL1        0.0103
      6 C         140.2087  140.0076  168.5727 C.ar    1  UNL1        0.0684
      7 C         141.5783  139.7977  169.1474 C.ar    1  UNL1        0.0103
      8 C         142.7800  139.8220  168.2500 C.ar    1  UNL1        0.0008
      9 C         142.6122  140.0562  166.7780 C.ar    1  UNL1        0.0030
     10 C         143.8139  140.0806  165.8806 C.ar    1  UNL1        0.0366
     11 C         143.6461  140.3148  164.4085 C.ar    1  UNL1        0.1351
     12 C         139.0070  139.9832  169.4701 C.1     1  UNL1        0.1004
     13 N         137.8053  139.9590  170.3675 N.1     1  UNL1       -0.1908
     14 O         144.8478  140.3391  163.5111 O.3     1  UNL1       -0.4717
     15 C         145.7466  141.5399  163.4936 C.3     1  UNL1        0.2525
     16 C         141.9830  144.0048  160.0818 C.ar    1  UNL1        0.2272
     17 C         142.3503  142.6410  160.5873 C.ar    1  UNL1        0.0540
     18 C         141.7415  142.1225  161.8563 C.ar    1  UNL1       -0.0064
     19 C         140.7654  142.9676  162.6199 C.ar    1  UNL1        0.0540
     20 C         140.3982  144.3313  162.1145 C.ar    1  UNL1        0.2270
     21 N         141.0070  144.8499  160.8454 N.ar    1  UNL1       -0.1767
     22 C         141.8216  145.4742  157.9454 C.3     1  UNL1        0.2542
     23 O         142.5918  144.5233  158.8128 O.3     1  UNL1       -0.4561
     24 O         139.4221  145.1764  162.8781 O.3     1  UNL1       -0.4640
     25 C         138.5730  144.5589  163.9495 C.3     1  UNL1        0.1678
     26 C         137.4673  143.6153  163.5793 C.3     1  UNL1        0.0473
     27 C         138.8296  144.8850  165.3909 C.3     1  UNL1        0.0473
     28 C         142.3082  139.6293  161.3951 C.3     1  UNL1        0.1186
     29 O         143.6804  140.1445  161.0763 O.3     1  UNL1       -0.3819
     30 H         143.6068  140.9634  160.5616 H       1  UNL1        0.2107
     31 C         140.9360  139.1141  161.7139 C.ar    1  UNL1        0.0369
     32 C         140.7552  138.0674  162.7729 C.ar    1  UNL1        0.0010
     33 C         139.3830  137.5522  163.0918 C.ar    1  UNL1       -0.0000
     34 C         138.1916  138.0838  162.3516 C.ar    1  UNL1        0.0031
     35 C         138.3724  139.1305  161.2925 C.ar    1  UNL1        0.0375
     36 C         137.3934  139.8380  160.4031 C.ar    1  UNL1        0.0437
     37 C         138.1606  140.7904  159.5345 C.ar    1  UNL1        0.1796
     38 O         139.6137  140.6716  159.8872 O.2     1  UNL1       -0.4507
     39 C         139.7446  139.6457  160.9737 C.ar    1  UNL1        0.1436
     40 C         142.5076  138.4998  160.4284 C.3     1  UNL1        0.0492
     41 C         142.6719  138.7852  158.9650 C.3     1  UNL1        0.0750
     42 N         141.9654  137.9349  157.9511 N.3     1  UNL1       -0.2702
     43 C         140.5148  138.1729  157.6527 C.3     1  UNL1        0.0897
     44 C         142.7096  136.8466  157.2356 C.3     1  UNL1        0.0897
@<TRIPOS>BOND
     1    22    23    1
     2    23    16    1
     3    16    17   ar
     4    17    18   ar
     5     1    18    1
     6     1     2    1
     7     2     3   ar
     8     3     4   ar
     9     4     5   ar
    10     5     6   ar
    11     6    12    1
    12    12    13    3
    13     6     7   ar
    14     7     8   ar
    15     8     9   ar
    16     9    10   ar
    17    10    11   ar
    18    11    14    1
    19    14    15    1
    20     1    28    1
    21    28    29    1
    22    28    40    1
    23    40    41    1
    24    41    42    1
    25    42    43    1
    26    42    44    1
    27    28    31    1
    28    31    32   ar
    29    32    33   ar
    30    33    34   ar
    31    34    35   ar
    32    35    36   ar
    33    36    37   ar
    34    37    38   ar
    35    38    39   ar
    36    18    19   ar
    37    19    20   ar
    38    20    24    1
    39    24    25    1
    40    25    26    1
    41    25    27    1
    42    20    21   ar
    43    21    16   ar
    44    11     2   ar
    45    39    31   ar
    46     9     4   ar
    47    39    35   ar
    48    29    30    1
@<TRIPOS>MOLECULE
*****
 44 48 0 0 0
SMALL
GASTEIGER

@<TRIPOS>ATOM
      1 C         140.2593  140.5459  163.2812 C.3     1  UNL1        0.0764
      2 C         140.1563  140.4675  164.7757 C.ar    1  UNL1        0.0181
      3 C         140.9739  141.3874  165.6331 C.ar    1  UNL1       -0.0009
      4 C         140.8709  141.3090  167.1275 C.ar    1  UNL1        0.0006
      5 C         141.6885  142.2289  167.9850 C.ar    1  UNL1        0.0103
      6 C         141.5855  142.1504  169.4793 C.ar    1  UNL1        0.0684
      7 C         140.6650  141.1520  170.1163 C.ar    1  UNL1        0.0103
      8 C         139.8474  140.2320  169.2588 C.ar    1  UNL1        0.0008
      9 C         139.9504  140.3105  167.7645 C.ar    1  UNL1        0.0030
     10 C         139.1328  139.3905  166.9070 C.ar    1  UNL1        0.0366
     11 C         139.2358  139.4690  165.4126 C.ar    1  UNL1        0.1351
     12 C         142.4031  143.0704  170.3368 C.1     1  UNL1        0.1004
     13 N         143.2206  143.9904  171.1943 N.1     1  UNL1       -0.1908
     14 O         138.4182  138.5490  164.5551 O.3     1  UNL1       -0.4717
     15 C         138.7320  137.0827  164.5171 C.3     1  UNL1        0.2525
     16 C         143.3350  139.6832  160.9263 C.ar    1  UNL1        0.2272
     17 C         141.9881  139.6103  161.5825 C.ar    1  UNL1        0.0540
     18 C         141.6061  140.6189  162.6250 C.ar    1  UNL1       -0.0064
     19 C         142.5710  141.7004  163.0113 C.ar    1  UNL1        0.0540
     20 C         143.9179  141.7734  162.3551 C.ar    1  UNL1        0.2270
     21 N         144.2999  140.7647  161.3125 N.ar    1  UNL1       -0.1767
     22 C         142.7269  137.6359  159.4470 C.3     1  UNL1        0.2542
     23 O         143.7169  138.6745  159.8838 O.3     1  UNL1       -0.4561
     24 O         144.8828  142.8549  162.7413 O.3     1  UNL1       -0.4640
     25 C         144.4863  143.8866  163.7555 C.3     1  UNL1        0.1678
     26 C         144.7272  143.6353  165.2146 C.3     1  UNL1        0.0473
     27 C         143.8489  145.1695  163.3106 C.3     1  UNL1        0.0473
     28 C         139.0153  140.5514  162.4430 C.3     1  UNL1        0.1186
     29 O         139.2685  139.1240  162.0579 O.3     1  UNL1       -0.3819
     30 H         140.0287  139.0812  161.4569 H       1  UNL1        0.2107
     31 C         138.7621  141.9789  162.8282 C.ar    1  UNL1        0.0369
     32 C         137.8764  142.2945  163.9968 C.ar    1  UNL1        0.0010
     33 C         137.6232  143.7220  164.3819 C.ar    1  UNL1       -0.0000
     34 C         138.2557  144.8337  163.5985 C.ar    1  UNL1        0.0031
     35 C         139.1415  144.5180  162.4299 C.ar    1  UNL1        0.0375
     36 C         139.8970  145.3962  161.4770 C.ar    1  UNL1        0.0437
     37 C         140.6171  144.5116  160.5029 C.ar    1  UNL1        0.1796
     38 O         140.3067  143.0865  160.8538 O.2     1  UNL1       -0.4507
     39 C         139.3947  143.0906  162.0447 C.ar    1  UNL1        0.1436
     40 C         137.7714  140.5569  161.6048 C.3     1  UNL1        0.0492
     41 C         137.7055  139.7300  160.3550 C.3     1  UNL1        0.0750
     42 N         138.4887  140.1392  159.1429 N.3     1  UNL1       -0.2702
     43 C         138.2769  141.4941  158.5352 C.3     1  UNL1        0.0897
     44 C         139.4838  139.1933  158.5385 C.3     1  UNL1        0.0897
@<TRIPOS>BOND
     1    22    23    1
     2    23    16    1
     3    16    17   ar
     4    17    18   ar
     5     1    18    1
     6     1     2    1
     7     2     3   ar
     8     3     4   ar
     9     4     5   ar
    10     5     6   ar
    11     6    12    1
    12    12    13    3
    13     6     7   ar
    14     7     8   ar
    15     8     9   ar
    16     9    10   ar
    17    10    11   ar
    18    11    14    1
    19    14    15    1
    20     1    28    1
    21    28    29    1
    22    28    40    1
    23    40    41    1
    24    41    42    1
    25    42    43    1
    26    42    44    1
    27    28    31    1
    28    31    32   ar
    29    32    33   ar
    30    33    34   ar
    31    34    35   ar
    32    35    36   ar
    33    36    37   ar
    34    37    38   ar
    35    38    39   ar
    36    18    19   ar
    37    19    20   ar
    38    20    24    1
    39    24    25    1
    40    25    26    1
    41    25    27    1
    42    20    21   ar
    43    21    16   ar
    44    11     2   ar
    45    39    31   ar
    46     9     4   ar
    47    39    35   ar
    48    29    30    1
@<TRIPOS>MOLECULE
*****
 44 48 0 0 0
SMALL
GASTEIGER

@<TRIPOS>ATOM
      1 C         141.9726  141.7415  162.4279 C.3     1  UNL1        0.0764
      2 C         142.1629  141.6864  163.9149 C.ar    1  UNL1        0.0181
      3 C         141.0285  141.2649  164.8010 C.ar    1  UNL1       -0.0009
      4 C         141.2187  141.2098  166.2880 C.ar    1  UNL1        0.0006
      5 C         140.0843  140.7883  167.1741 C.ar    1  UNL1        0.0103
      6 C         140.2746  140.7332  168.6610 C.ar    1  UNL1        0.0684
      7 C         141.5994  141.0996  169.2616 C.ar    1  UNL1        0.0103
      8 C         142.7338  141.5211  168.3754 C.ar    1  UNL1        0.0008
      9 C         142.5435  141.5762  166.8886 C.ar    1  UNL1        0.0030
     10 C         143.6779  141.9977  166.0023 C.ar    1  UNL1        0.0366
     11 C         143.4876  142.0528  164.5155 C.ar    1  UNL1        0.1351
     12 C         139.1402  140.3117  169.5472 C.1     1  UNL1        0.1004
     13 N         138.0057  139.8902  170.4334 N.1     1  UNL1       -0.1908
     14 O         144.6221  142.4743  163.6292 O.3     1  UNL1       -0.4717
     15 C         145.9123  141.7096  163.6477 C.3     1  UNL1        0.2525
     16 C         139.4181  144.6914  161.7053 C.ar    1  UNL1        0.2272
     17 C         140.0496  143.4860  162.3364 C.ar    1  UNL1        0.0540
     18 C         141.3411  142.9468  161.7968 C.ar    1  UNL1       -0.0064
     19 C         142.0011  143.6129  160.6260 C.ar    1  UNL1        0.0540
     20 C         141.3696  144.8182  159.9949 C.ar    1  UNL1        0.2270
     21 N         140.0781  145.3575  160.5345 N.ar    1  UNL1       -0.1767
     22 C         137.4268  144.5198  163.3652 C.3     1  UNL1        0.2542
     23 O         138.1266  145.2307  162.2449 O.3     1  UNL1       -0.4561
     24 O         142.0296  145.4843  158.8241 O.3     1  UNL1       -0.4640
     25 C         141.4456  145.3372  157.4503 C.3     1  UNL1        0.1678
     26 C         140.3019  146.2093  157.0242 C.3     1  UNL1        0.0473
     27 C         142.0051  144.3180  156.5026 C.3     1  UNL1        0.0473
     28 C         142.4138  140.5912  161.5723 C.3     1  UNL1        0.1186
     29 O         143.7472  141.2494  161.3750 O.3     1  UNL1       -0.3819
     30 H         143.6439  142.0229  160.7987 H       1  UNL1        0.2107
     31 C         141.0805  139.9330  161.7695 C.ar    1  UNL1        0.0369
     32 C         139.9046  140.3573  160.9405 C.ar    1  UNL1        0.0010
     33 C         138.5713  139.6991  161.1378 C.ar    1  UNL1       -0.0000
     34 C         138.4138  138.6166  162.1641 C.ar    1  UNL1        0.0031
     35 C         139.5896  138.1923  162.9931 C.ar    1  UNL1        0.0375
     36 C         139.7368  137.1615  164.0729 C.ar    1  UNL1        0.0437
     37 C         141.1610  137.1827  164.5429 C.ar    1  UNL1        0.1796
     38 O         141.8942  138.2266  163.7536 O.2     1  UNL1       -0.4507
     39 C         140.9229  138.8505  162.7958 C.ar    1  UNL1        0.1436
     40 C         142.8550  139.4410  160.7166 C.3     1  UNL1        0.0492
     41 C         143.7332  139.6859  159.5254 C.3     1  UNL1        0.0750
     42 N         143.3172  140.6756  158.4778 N.3     1  UNL1       -0.2702
     43 C         144.2680  141.7509  158.0422 C.3     1  UNL1        0.0897
     44 C         141.9504  140.5900  157.8658 C.3     1  UNL1        0.0897
@<TRIPOS>BOND
     1    22    23    1
     2    23    16    1
     3    16    17   ar
     4    17    18   ar
     5     1    18    1
     6     1     2    1
     7     2     3   ar
     8     3     4   ar
     9     4     5   ar
    10     5     6   ar
    11     6    12    1
    12    12    13    3
    13     6     7   ar
    14     7     8   ar
    15     8     9   ar
    16     9    10   ar
    17    10    11   ar
    18    11    14    1
    19    14    15    1
    20     1    28    1
    21    28    29    1
    22    28    40    1
    23    40    41    1
    24    41    42    1
    25    42    43    1
    26    42    44    1
    27    28    31    1
    28    31    32   ar
    29    32    33   ar
    30    33    34   ar
    31    34    35   ar
    32    35    36   ar
    33    36    37   ar
    34    37    38   ar
    35    38    39   ar
    36    18    19   ar
    37    19    20   ar
    38    20    24    1
    39    24    25    1
    40    25    26    1
    41    25    27    1
    42    20    21   ar
    43    21    16   ar
    44    11     2   ar
    45    39    31   ar
    46     9     4   ar
    47    39    35   ar
    48    29    30    1
@<TRIPOS>MOLECULE
*****
 44 48 0 0 0
SMALL
GASTEIGER

@<TRIPOS>ATOM
      1 C         141.1242  141.2116  164.7036 C.3     1  UNL1        0.0764
      2 C         140.9569  140.5423  163.3716 C.ar    1  UNL1        0.0181
      3 C         139.9295  141.0471  162.4023 C.ar    1  UNL1       -0.0009
      4 C         139.7622  140.3777  161.0704 C.ar    1  UNL1        0.0006
      5 C         138.7348  140.8825  160.1011 C.ar    1  UNL1        0.0103
      6 C         138.5675  140.2132  158.7692 C.ar    1  UNL1        0.0684
      7 C         139.4277  139.0391  158.4066 C.ar    1  UNL1        0.0103
      8 C         140.4551  138.5343  159.3759 C.ar    1  UNL1        0.0008
      9 C         140.6224  139.2036  160.7078 C.ar    1  UNL1        0.0030
     10 C         141.6498  138.6988  161.6771 C.ar    1  UNL1        0.0366
     11 C         141.8171  139.3681  163.0090 C.ar    1  UNL1        0.1351
     12 C         137.5401  140.7180  157.7998 C.1     1  UNL1        0.1004
     13 N         136.5127  141.2227  156.8305 N.1     1  UNL1       -0.1908
     14 O         142.8445  138.8633  163.9784 O.3     1  UNL1       -0.4717
     15 C         142.4487  137.8969  165.0551 C.3     1  UNL1        0.2525
     16 C         138.5027  139.2103  166.9110 C.ar    1  UNL1        0.2272
     17 C         139.2565  139.7169  165.7171 C.ar    1  UNL1        0.0540
     18 C         140.3705  140.7050  165.8974 C.ar    1  UNL1       -0.0064
     19 C         140.7309  141.1866  167.2716 C.ar    1  UNL1        0.0540
     20 C         139.9772  140.6800  168.4654 C.ar    1  UNL1        0.2270
     21 N         138.8631  139.6918  168.2852 N.ar    1  UNL1       -0.1767
     22 C         136.6716  137.6737  167.9286 C.3     1  UNL1        0.2542
     23 O         137.3887  138.2222  166.7307 O.3     1  UNL1       -0.4561
     24 O         140.3375  141.1616  169.8396 O.3     1  UNL1       -0.4640
     25 C         141.0960  142.4445  170.0098 C.3     1  UNL1        0.1678
     26 C         140.3923  143.7591  169.8467 C.3     1  UNL1        0.0473
     27 C         142.5581  142.4128  170.3431 C.3     1  UNL1        0.0473
     28 C         142.0451  142.3875  164.8416 C.3     1  UNL1        0.1186
     29 O         143.1394  141.4754  165.3111 O.3     1  UNL1       -0.3819
     30 H         142.9335  141.1559  166.2035 H       1  UNL1        0.2107
     31 C         140.9508  143.2997  164.3721 C.ar    1  UNL1        0.0369
     32 C         139.8448  143.6879  165.3081 C.ar    1  UNL1        0.0010
     33 C         138.7505  144.6001  164.8386 C.ar    1  UNL1       -0.0000
     34 C         138.7622  145.1240  163.4331 C.ar    1  UNL1        0.0031
     35 C         139.8682  144.7358  162.4972 C.ar    1  UNL1        0.0375
     36 C         140.1438  145.0922  161.0664 C.ar    1  UNL1        0.0437
     37 C         141.4084  144.4003  160.6517 C.ar    1  UNL1        0.1796
     38 O         141.9144  143.6163  161.8261 O.2     1  UNL1       -0.4507
     39 C         140.9625  143.8237  162.9667 C.ar    1  UNL1        0.1436
     40 C         142.9661  143.5634  164.9796 C.3     1  UNL1        0.0492
     41 C         144.4479  143.3759  164.8410 C.3     1  UNL1        0.0750
     42 N         145.0150  142.7879  163.5829 N.3     1  UNL1       -0.2702
     43 C         145.8741  141.5602  163.6498 C.3     1  UNL1        0.0897
     44 C         144.7229  143.4278  162.2580 C.3     1  UNL1        0.0897
@<TRIPOS>BOND
     1    22    23    1
     2    23    16    1
     3    16    17   ar
     4    17    18   ar
     5     1    18    1
     6     1     2    1
     7     2     3   ar
     8     3     4   ar
     9     4     5   ar
    10     5     6   ar
    11     6    12    1
    12    12    13    3
    13     6     7   ar
    14     7     8   ar
    15     8     9   ar
    16     9    10   ar
    17    10    11   ar
    18    11    14    1
    19    14    15    1
    20     1    28    1
    21    28    29    1
    22    28    40    1
    23    40    41    1
    24    41    42    1
    25    42    43    1
    26    42    44    1
    27    28    31    1
    28    31    32   ar
    29    32    33   ar
    30    33    34   ar
    31    34    35   ar
    32    35    36   ar
    33    36    37   ar
    34    37    38   ar
    35    38    39   ar
    36    18    19   ar
    37    19    20   ar
    38    20    24    1
    39    24    25    1
    40    25    26    1
    41    25    27    1
    42    20    21   ar
    43    21    16   ar
    44    11     2   ar
    45    39    31   ar
    46     9     4   ar
    47    39    35   ar
    48    29    30    1
@<TRIPOS>MOLECULE
*****
 44 48 0 0 0
SMALL
GASTEIGER

@<TRIPOS>ATOM
      1 C         140.8394  139.9513  161.9809 C.3     1  UNL1        0.0764
      2 C         140.3200  139.7606  163.3752 C.ar    1  UNL1        0.0181
      3 C         140.7742  140.6725  164.4760 C.ar    1  UNL1       -0.0009
      4 C         140.2548  140.4818  165.8703 C.ar    1  UNL1        0.0006
      5 C         140.7091  141.3938  166.9712 C.ar    1  UNL1        0.0103
      6 C         140.1897  141.2030  168.3654 C.ar    1  UNL1        0.0684
      7 C         139.2161  140.1002  168.6587 C.ar    1  UNL1        0.0103
      8 C         138.7619  139.1882  167.5578 C.ar    1  UNL1        0.0008
      9 C         139.2813  139.3790  166.1636 C.ar    1  UNL1        0.0030
     10 C         138.8271  138.4670  165.0627 C.ar    1  UNL1        0.0366
     11 C         139.3464  138.6578  163.6685 C.ar    1  UNL1        0.1351
     12 C         140.6439  142.1150  169.4663 C.1     1  UNL1        0.1004
     13 N         141.0981  143.0269  170.5672 N.1     1  UNL1       -0.1908
     14 O         138.8922  137.7458  162.5675 O.3     1  UNL1       -0.4717
     15 C         137.7022  138.1138  161.7318 C.3     1  UNL1        0.2525
     16 C         139.6892  142.0795  158.8348 C.ar    1  UNL1        0.2272
     17 C         140.1794  140.9320  159.6674 C.ar    1  UNL1        0.0540
     18 C         140.3492  141.0987  161.1484 C.ar    1  UNL1       -0.0064
     19 C         140.0287  142.4128  161.7968 C.ar    1  UNL1        0.0540
     20 C         139.5385  143.5602  160.9643 C.ar    1  UNL1        0.2270
     21 N         139.3687  143.3936  159.4833 N.ar    1  UNL1       -0.1767
     22 C         140.6423  141.3590  156.5279 C.3     1  UNL1        0.2542
     23 O         139.5194  141.9128  157.3538 O.3     1  UNL1       -0.4561
     24 O         139.2181  144.8743  161.6128 O.3     1  UNL1       -0.4640
     25 C         139.7302  145.1756  162.9902 C.3     1  UNL1        0.1678
     26 C         138.8523  144.9432  164.1841 C.3     1  UNL1        0.0473
     27 C         141.1200  145.7091  163.1736 C.3     1  UNL1        0.0473
     28 C         141.8490  138.9946  161.4192 C.3     1  UNL1        0.1186
     29 O         140.8185  138.4672  160.4653 O.3     1  UNL1       -0.3819
     30 H         140.1608  137.9483  160.9543 H       1  UNL1        0.2107
     31 C         142.8795  139.5220  162.3731 C.ar    1  UNL1        0.0369
     32 C         143.2411  138.7343  163.5973 C.ar    1  UNL1        0.0010
     33 C         144.2716  139.2618  164.5512 C.ar    1  UNL1       -0.0000
     34 C         144.9404  140.5769  164.2809 C.ar    1  UNL1        0.0031
     35 C         144.5788  141.3646  163.0567 C.ar    1  UNL1        0.0375
     36 C         145.0658  142.6822  162.5308 C.ar    1  UNL1        0.0437
     37 C         144.3364  142.9692  161.2519 C.ar    1  UNL1        0.1796
     38 O         143.3984  141.8288  160.9874 O.2     1  UNL1       -0.4507
     39 C         143.5483  140.8372  162.1028 C.ar    1  UNL1        0.1436
     40 C         142.8585  138.0379  160.8575 C.3     1  UNL1        0.0492
     41 C         142.6472  137.4361  159.4998 C.3     1  UNL1        0.0750
     42 N         143.0171  138.2112  158.2700 N.3     1  UNL1       -0.2702
     43 C         143.4756  139.6343  158.3901 C.3     1  UNL1        0.0897
     44 C         142.9287  137.5630  156.9201 C.3     1  UNL1        0.0897
@<TRIPOS>BOND
     1    22    23    1
     2    23    16    1
     3    16    17   ar
     4    17    18   ar
     5     1    18    1
     6     1     2    1
     7     2     3   ar
     8     3     4   ar
     9     4     5   ar
    10     5     6   ar
    11     6    12    1
    12    12    13    3
    13     6     7   ar
    14     7     8   ar
    15     8     9   ar
    16     9    10   ar
    17    10    11   ar
    18    11    14    1
    19    14    15    1
    20     1    28    1
    21    28    29    1
    22    28    40    1
    23    40    41    1
    24    41    42    1
    25    42    43    1
    26    42    44    1
    27    28    31    1
    28    31    32   ar
    29    32    33   ar
    30    33    34   ar
    31    34    35   ar
    32    35    36   ar
    33    36    37   ar
    34    37    38   ar
    35    38    39   ar
    36    18    19   ar
    37    19    20   ar
    38    20    24    1
    39    24    25    1
    40    25    26    1
    41    25    27    1
    42    20    21   ar
    43    21    16   ar
    44    11     2   ar
    45    39    31   ar
    46     9     4   ar
    47    39    35   ar
    48    29    30    1
