@<TRIPOS>MOLECULE
*****
 43 46 0 0 0
SMALL
GASTEIGER

@<TRIPOS>ATOM
      1 C         140.9787  138.0497  163.7431 C.3     1  UNL1        0.0038
      2 C         139.5641  137.5808  163.9131 C.3     1  UNL1        0.0473
      3 C         138.8361  137.8435  165.1980 C.3     1  UNL1        0.2054
      4 O         138.1578  139.1629  165.4195 O.3     1  UNL1       -0.4755
      5 C         138.9682  140.4241  165.4671 C.ar    1  UNL1        0.1386
      6 C         139.7135  140.7902  166.7163 C.ar    1  UNL1        0.0369
      7 C         140.5240  142.0515  166.7638 C.ar    1  UNL1        0.0030
      8 C         140.5891  142.9468  165.5621 C.ar    1  UNL1        0.0002
      9 C         139.8439  142.5808  164.3128 C.ar    1  UNL1        0.0030
     10 C         139.0334  141.3195  164.2653 C.ar    1  UNL1        0.0369
     11 C         139.9091  143.4761  163.1110 C.ar    1  UNL1        0.0001
     12 C         140.1811  144.9414  163.2813 C.ar    1  UNL1        0.0000
     13 C         140.2463  145.8366  162.0796 C.ar    1  UNL1        0.0000
     14 C         140.0394  145.2667  160.7076 C.ar    1  UNL1        0.0000
     15 C         139.7674  143.8014  160.5373 C.ar    1  UNL1        0.0000
     16 C         139.7022  142.9062  161.7390 C.ar    1  UNL1        0.0000
     17 C         141.2692  142.4175  168.0130 C.ar    1  UNL1        0.0001
     18 C         142.6699  141.9232  168.2228 C.ar    1  UNL1        0.0000
     19 C         143.4151  142.2893  169.4720 C.ar    1  UNL1        0.0000
     20 C         142.7597  143.1496  170.5115 C.ar    1  UNL1        0.0000
     21 C         141.3592  143.6438  170.3017 C.ar    1  UNL1        0.0000
     22 C         140.6139  143.2778  169.0525 C.ar    1  UNL1        0.0000
     23 C         141.8991  138.1009  164.9263 C.3     1  UNL1        0.0005
     24 C         142.5407  139.3978  165.3220 C.3     1  UNL1        0.0047
     25 C         143.7044  139.9286  164.5384 C.3     1  UNL1        0.0261
     26 C         143.4245  143.2868  162.4422 C.ar    1  UNL1        0.1342
     27 C         143.8846  144.2926  163.4554 C.ar    1  UNL1        0.0365
     28 C         144.2847  143.8438  164.8296 C.ar    1  UNL1        0.0028
     29 C         144.2246  142.3891  165.1906 C.ar    1  UNL1       -0.0044
     30 C         143.7645  141.3833  164.1774 C.ar    1  UNL1       -0.0232
     31 C         143.3645  141.8322  162.8032 C.ar    1  UNL1        0.0082
     32 C         142.9043  140.8263  161.7900 C.3     1  UNL1        0.0350
     33 C         143.9060  140.1241  160.9218 C.3     1  UNL1        0.0465
     34 C         143.6854  138.6936  160.5285 C.2     1  UNL1        0.0507
     35 O         143.3055  138.3536  159.1178 O.co2   1  UNL1       -0.5492
     36 O         143.8448  137.6029  161.5459 O.co2   1  UNL1       -0.5492
     37 O         143.0245  143.7356  161.0679 O.3     1  UNL1       -0.4758
     38 C         143.7644  143.2252  159.8672 C.3     1  UNL1        0.2058
     39 C         143.0882  143.1893  158.5288 C.3     1  UNL1        0.0532
     40 C         142.7736  141.8727  157.8825 C.3     1  UNL1        0.0455
     41 O         140.5180  141.5945  156.6234 O.co2   1  UNL1       -0.5492
     42 C         141.3593  141.3742  157.8457 C.2     1  UNL1        0.0505
     43 O         140.7863  140.6555  159.0310 O.co2   1  UNL1       -0.5492
@<TRIPOS>UNITY_ATOM_ATTR
35 1
charge -1
41 1
charge -1
@<TRIPOS>BOND
     1    41    42   ar
     2    42    43   ar
     3    42    40    1
     4    40    39    1
     5    39    38    1
     6    38    37    1
     7    37    26    1
     8    26    27   ar
     9    27    28   ar
    10    28    29   ar
    11    29    30   ar
    12    30    25    1
    13    25    24    1
    14    24    23    1
    15    23     1    1
    16     1     2    1
    17     2     3    1
    18     3     4    1
    19     4     5    1
    20     5     6   ar
    21     6     7   ar
    22     7    17    1
    23    17    18   ar
    24    18    19   ar
    25    19    20   ar
    26    20    21   ar
    27    21    22   ar
    28     7     8   ar
    29     8     9   ar
    30     9    11    1
    31    11    12   ar
    32    12    13   ar
    33    13    14   ar
    34    14    15   ar
    35    15    16   ar
    36     9    10   ar
    37    30    31   ar
    38    31    32    1
    39    32    33    1
    40    33    34    1
    41    34    35   ar
    42    34    36   ar
    43    31    26   ar
    44    10     5   ar
    45    22    17   ar
    46    16    11   ar
@<TRIPOS>MOLECULE
*****
 43 46 0 0 0
SMALL
GASTEIGER

@<TRIPOS>ATOM
      1 C         141.4838  138.1760  163.7921 C.3     1  UNL1        0.0038
      2 C         140.1855  137.4454  163.9664 C.3     1  UNL1        0.0473
      3 C         139.2878  137.7764  165.1217 C.3     1  UNL1        0.2054
      4 O         138.5000  139.0528  165.1176 O.3     1  UNL1       -0.4755
      5 C         139.2056  140.3700  165.2474 C.ar    1  UNL1        0.1386
      6 C         139.2434  141.3183  164.0858 C.ar    1  UNL1        0.0369
      7 C         139.9491  142.6356  164.2156 C.ar    1  UNL1        0.0030
      8 C         140.6169  143.0046  165.5069 C.ar    1  UNL1        0.0002
      9 C         140.5792  142.0563  166.6686 C.ar    1  UNL1        0.0030
     10 C         139.8735  140.7391  166.5388 C.ar    1  UNL1        0.0369
     11 C         141.2471  142.4254  167.9600 C.ar    1  UNL1        0.0001
     12 C         140.5105  143.2444  168.9781 C.ar    1  UNL1        0.0000
     13 C         141.1784  143.6134  170.2695 C.ar    1  UNL1        0.0000
     14 C         142.5830  143.1634  170.5427 C.ar    1  UNL1        0.0000
     15 C         143.3197  142.3444  169.5246 C.ar    1  UNL1        0.0000
     16 C         142.6517  141.9754  168.2333 C.ar    1  UNL1        0.0000
     17 C         139.9868  143.5838  163.0539 C.ar    1  UNL1        0.0001
     18 C         140.1261  145.0581  163.2934 C.ar    1  UNL1        0.0000
     19 C         140.1639  146.0063  162.1318 C.ar    1  UNL1        0.0000
     20 C         140.0623  145.4803  160.7307 C.ar    1  UNL1        0.0000
     21 C         139.9230  144.0062  160.4912 C.ar    1  UNL1        0.0000
     22 C         139.8853  143.0579  161.6529 C.ar    1  UNL1        0.0000
     23 C         142.3950  138.3766  164.9665 C.3     1  UNL1        0.0005
     24 C         142.9041  139.7488  165.2951 C.3     1  UNL1        0.0047
     25 C         144.1062  140.2934  164.5820 C.3     1  UNL1        0.0261
     26 C         144.1562  143.1459  161.8232 C.ar    1  UNL1        0.1342
     27 C         143.9360  144.3637  162.6707 C.ar    1  UNL1        0.0365
     28 C         143.7725  144.2249  164.1552 C.ar    1  UNL1        0.0028
     29 C         143.8292  142.8681  164.7924 C.ar    1  UNL1       -0.0044
     30 C         144.0494  141.6503  163.9449 C.ar    1  UNL1       -0.0232
     31 C         144.2129  141.7891  162.4603 C.ar    1  UNL1        0.0082
     32 C         144.4331  140.5712  161.6128 C.3     1  UNL1        0.0350
     33 C         143.2674  139.8953  160.9538 C.3     1  UNL1        0.0465
     34 C         143.3772  138.4632  160.5213 C.2     1  UNL1        0.0507
     35 O         144.1503  137.4850  161.3553 O.co2   1  UNL1       -0.5492
     36 O         142.7140  138.0093  159.2548 O.co2   1  UNL1       -0.5492
     37 O         144.3197  143.2847  160.3386 O.3     1  UNL1       -0.4758
     38 C         143.1114  143.3097  159.4501 C.3     1  UNL1        0.2058
     39 C         143.2672  143.1431  157.9675 C.3     1  UNL1        0.0532
     40 C         142.2649  143.7558  157.0346 C.3     1  UNL1        0.0455
     41 O         140.1669  145.2785  157.2081 O.co2   1  UNL1       -0.5492
     42 C         141.6458  145.0816  157.3646 C.2     1  UNL1        0.0505
     43 O         142.5053  146.2105  157.8510 O.co2   1  UNL1       -0.5492
@<TRIPOS>UNITY_ATOM_ATTR
35 1
charge -1
41 1
charge -1
@<TRIPOS>BOND
     1    41    42   ar
     2    42    43   ar
     3    42    40    1
     4    40    39    1
     5    39    38    1
     6    38    37    1
     7    37    26    1
     8    26    27   ar
     9    27    28   ar
    10    28    29   ar
    11    29    30   ar
    12    30    25    1
    13    25    24    1
    14    24    23    1
    15    23     1    1
    16     1     2    1
    17     2     3    1
    18     3     4    1
    19     4     5    1
    20     5     6   ar
    21     6     7   ar
    22     7    17    1
    23    17    18   ar
    24    18    19   ar
    25    19    20   ar
    26    20    21   ar
    27    21    22   ar
    28     7     8   ar
    29     8     9   ar
    30     9    11    1
    31    11    12   ar
    32    12    13   ar
    33    13    14   ar
    34    14    15   ar
    35    15    16   ar
    36     9    10   ar
    37    30    31   ar
    38    31    32    1
    39    32    33    1
    40    33    34    1
    41    34    35   ar
    42    34    36   ar
    43    31    26   ar
    44    10     5   ar
    45    22    17   ar
    46    16    11   ar
@<TRIPOS>MOLECULE
*****
 43 46 0 0 0
SMALL
GASTEIGER

@<TRIPOS>ATOM
      1 C         142.3410  143.7300  160.2945 C.3     1  UNL1        0.0038
      2 C         141.5044  144.5572  161.2249 C.3     1  UNL1        0.0473
      3 C         140.1182  144.9668  160.8236 C.3     1  UNL1        0.2054
      4 O         138.9327  144.2047  161.3372 O.3     1  UNL1       -0.4755
      5 C         138.9239  142.7057  161.2828 C.ar    1  UNL1        0.1386
      6 C         139.0324  142.0025  159.9623 C.ar    1  UNL1        0.0369
      7 C         139.0236  140.5035  159.9079 C.ar    1  UNL1        0.0030
      8 C         138.9061  139.7078  161.1739 C.ar    1  UNL1        0.0002
      9 C         138.7975  140.4110  162.4944 C.ar    1  UNL1        0.0030
     10 C         138.8064  141.9099  162.5489 C.ar    1  UNL1        0.0369
     11 C         138.6801  139.6151  163.7605 C.ar    1  UNL1        0.0001
     12 C         138.9089  138.1329  163.7387 C.ar    1  UNL1        0.0000
     13 C         138.7915  137.3372  165.0047 C.ar    1  UNL1        0.0000
     14 C         138.4452  138.0237  166.2927 C.ar    1  UNL1        0.0000
     15 C         138.2163  139.5059  166.3145 C.ar    1  UNL1        0.0000
     16 C         138.3338  140.3017  165.0485 C.ar    1  UNL1        0.0000
     17 C         139.1321  139.8003  158.5874 C.ar    1  UNL1        0.0001
     18 C         138.5605  140.4313  157.3524 C.ar    1  UNL1        0.0000
     19 C         138.6691  139.7281  156.0319 C.ar    1  UNL1        0.0000
     20 C         139.3493  138.3938  155.9464 C.ar    1  UNL1        0.0000
     21 C         139.9208  137.7629  157.1814 C.ar    1  UNL1        0.0000
     22 C         139.8122  138.4661  158.5018 C.ar    1  UNL1        0.0000
     23 C         143.5990  143.0825  160.7923 C.3     1  UNL1        0.0005
     24 C         143.5514  141.7018  161.3767 C.3     1  UNL1        0.0047
     25 C         142.2830  141.1922  161.9944 C.3     1  UNL1        0.0261
     26 C         142.2101  140.6182  165.9206 C.ar    1  UNL1        0.1342
     27 C         142.3975  139.1318  165.9934 C.ar    1  UNL1        0.0365
     28 C         142.5468  138.3321  164.7331 C.ar    1  UNL1        0.0028
     29 C         142.5086  139.0189  163.4001 C.ar    1  UNL1       -0.0044
     30 C         142.3212  140.5053  163.3274 C.ar    1  UNL1       -0.0232
     31 C         142.1719  141.3050  164.5877 C.ar    1  UNL1        0.0082
     32 C         141.9845  142.7915  164.5149 C.3     1  UNL1        0.0350
     33 C         143.1796  143.6962  164.4568 C.3     1  UNL1        0.0465
     34 C         144.4916  143.2429  165.0252 C.2     1  UNL1        0.0507
     35 O         145.2957  142.1956  164.3133 O.co2   1  UNL1       -0.5492
     36 O         144.9997  143.8370  166.3054 O.co2   1  UNL1       -0.5492
     37 O         142.0608  141.4179  167.1809 O.3     1  UNL1       -0.4758
     38 C         140.6965  141.6746  167.7491 C.3     1  UNL1        0.2058
     39 C         140.3516  143.0313  168.2880 C.3     1  UNL1        0.0532
     40 C         140.5507  143.3328  169.7439 C.3     1  UNL1        0.0455
     41 O         140.6628  142.2718  172.1129 O.co2   1  UNL1       -0.5492
     42 C         139.9807  142.4151  170.7846 C.2     1  UNL1        0.0505
     43 O         138.7287  141.6407  170.4971 O.co2   1  UNL1       -0.5492
@<TRIPOS>UNITY_ATOM_ATTR
35 1
charge -1
41 1
charge -1
@<TRIPOS>BOND
     1    41    42   ar
     2    42    43   ar
     3    42    40    1
     4    40    39    1
     5    39    38    1
     6    38    37    1
     7    37    26    1
     8    26    27   ar
     9    27    28   ar
    10    28    29   ar
    11    29    30   ar
    12    30    25    1
    13    25    24    1
    14    24    23    1
    15    23     1    1
    16     1     2    1
    17     2     3    1
    18     3     4    1
    19     4     5    1
    20     5     6   ar
    21     6     7   ar
    22     7    17    1
    23    17    18   ar
    24    18    19   ar
    25    19    20   ar
    26    20    21   ar
    27    21    22   ar
    28     7     8   ar
    29     8     9   ar
    30     9    11    1
    31    11    12   ar
    32    12    13   ar
    33    13    14   ar
    34    14    15   ar
    35    15    16   ar
    36     9    10   ar
    37    30    31   ar
    38    31    32    1
    39    32    33    1
    40    33    34    1
    41    34    35   ar
    42    34    36   ar
    43    31    26   ar
    44    10     5   ar
    45    22    17   ar
    46    16    11   ar
@<TRIPOS>MOLECULE
*****
 43 46 0 0 0
SMALL
GASTEIGER

@<TRIPOS>ATOM
      1 C         141.2590  144.0699  160.4620 C.3     1  UNL1        0.0038
      2 C         140.5456  144.6537  159.2787 C.3     1  UNL1        0.0473
      3 C         139.5021  143.8501  158.5607 C.3     1  UNL1        0.2054
      4 O         138.5480  142.9935  159.3390 O.3     1  UNL1       -0.4755
      5 C         138.9649  141.6247  159.7889 C.ar    1  UNL1        0.1386
      6 C         139.6119  140.6811  158.8188 C.ar    1  UNL1        0.0369
      7 C         140.0288  139.3122  159.2687 C.ar    1  UNL1        0.0030
      8 C         139.7988  138.8870  160.6886 C.ar    1  UNL1        0.0002
      9 C         139.1518  139.8306  161.6587 C.ar    1  UNL1        0.0030
     10 C         138.7349  141.1994  161.2088 C.ar    1  UNL1        0.0369
     11 C         138.9218  139.4053  163.0787 C.ar    1  UNL1        0.0001
     12 C         138.4768  140.4099  164.0998 C.ar    1  UNL1        0.0000
     13 C         138.2468  139.9845  165.5197 C.ar    1  UNL1        0.0000
     14 C         138.4618  138.5546  165.9185 C.ar    1  UNL1        0.0000
     15 C         138.9068  137.5500  164.8974 C.ar    1  UNL1        0.0000
     16 C         139.1368  137.9753  163.4775 C.ar    1  UNL1        0.0000
     17 C         140.6758  138.3686  158.2986 C.ar    1  UNL1        0.0001
     18 C         139.8868  137.8189  157.1473 C.ar    1  UNL1        0.0000
     19 C         140.5337  136.8753  156.1773 C.ar    1  UNL1        0.0000
     20 C         141.9698  136.4814  156.3585 C.ar    1  UNL1        0.0000
     21 C         142.7587  137.0310  157.5097 C.ar    1  UNL1        0.0000
     22 C         142.1117  137.9746  158.4798 C.ar    1  UNL1        0.0000
     23 C         142.2426  142.9540  160.2690 C.3     1  UNL1        0.0005
     24 C         142.4121  141.9111  161.3339 C.3     1  UNL1        0.0047
     25 C         141.8852  142.1583  162.7164 C.3     1  UNL1        0.0261
     26 C         142.0748  140.4622  166.2993 C.ar    1  UNL1        0.1342
     27 C         142.4555  139.0594  165.9291 C.ar    1  UNL1        0.0365
     28 C         142.6462  138.6895  164.4880 C.ar    1  UNL1        0.0028
     29 C         142.4561  139.7225  163.4171 C.ar    1  UNL1       -0.0044
     30 C         142.0753  141.1253  163.7873 C.ar    1  UNL1       -0.0232
     31 C         141.8847  141.4952  165.2284 C.ar    1  UNL1        0.0082
     32 C         141.5039  142.8981  165.5986 C.3     1  UNL1        0.0350
     33 C         140.0930  143.2110  166.0004 C.3     1  UNL1        0.0465
     34 C         139.2698  144.1546  165.1747 C.2     1  UNL1        0.0507
     35 O         139.2841  144.0499  163.6783 O.co2   1  UNL1       -0.5492
     36 O         138.4322  145.2029  165.8452 O.co2   1  UNL1       -0.5492
     37 O         141.8841  140.8321  167.7404 O.3     1  UNL1       -0.4758
     38 C         140.9534  140.0325  168.6032 C.3     1  UNL1        0.2058
     39 C         139.5702  140.5397  168.8851 C.3     1  UNL1        0.0532
     40 C         139.2851  141.2689  170.1646 C.3     1  UNL1        0.0455
     41 O         141.2577  142.1723  171.5939 O.co2   1  UNL1       -0.5492
     42 C         140.1656  142.4055  170.5923 C.2     1  UNL1        0.0505
     43 O         139.9541  143.7751  170.0184 O.co2   1  UNL1       -0.5492
@<TRIPOS>UNITY_ATOM_ATTR
35 1
charge -1
41 1
charge -1
@<TRIPOS>BOND
     1    41    42   ar
     2    42    43   ar
     3    42    40    1
     4    40    39    1
     5    39    38    1
     6    38    37    1
     7    37    26    1
     8    26    27   ar
     9    27    28   ar
    10    28    29   ar
    11    29    30   ar
    12    30    25    1
    13    25    24    1
    14    24    23    1
    15    23     1    1
    16     1     2    1
    17     2     3    1
    18     3     4    1
    19     4     5    1
    20     5     6   ar
    21     6     7   ar
    22     7    17    1
    23    17    18   ar
    24    18    19   ar
    25    19    20   ar
    26    20    21   ar
    27    21    22   ar
    28     7     8   ar
    29     8     9   ar
    30     9    11    1
    31    11    12   ar
    32    12    13   ar
    33    13    14   ar
    34    14    15   ar
    35    15    16   ar
    36     9    10   ar
    37    30    31   ar
    38    31    32    1
    39    32    33    1
    40    33    34    1
    41    34    35   ar
    42    34    36   ar
    43    31    26   ar
    44    10     5   ar
    45    22    17   ar
    46    16    11   ar
@<TRIPOS>MOLECULE
*****
 43 46 0 0 0
SMALL
GASTEIGER

@<TRIPOS>ATOM
      1 C         139.9813  137.6666  164.3899 C.3     1  UNL1        0.0038
      2 C         138.8258  137.3853  165.3040 C.3     1  UNL1        0.0473
      3 C         138.1855  138.5049  166.0700 C.3     1  UNL1        0.2054
      4 O         137.8838  139.8053  165.3859 O.3     1  UNL1       -0.4755
      5 C         138.8743  140.9303  165.4433 C.ar    1  UNL1        0.1386
      6 C         139.0713  141.8176  164.2500 C.ar    1  UNL1        0.0369
      7 C         140.0618  142.9427  164.3075 C.ar    1  UNL1        0.0030
      8 C         140.8551  143.1804  165.5581 C.ar    1  UNL1        0.0002
      9 C         140.6580  142.2931  166.7513 C.ar    1  UNL1        0.0030
     10 C         139.6676  141.1681  166.6939 C.ar    1  UNL1        0.0369
     11 C         141.4514  142.5308  168.0020 C.ar    1  UNL1        0.0001
     12 C         142.8793  142.0785  168.0817 C.ar    1  UNL1        0.0000
     13 C         143.6726  142.3163  169.3323 C.ar    1  UNL1        0.0000
     14 C         143.0380  143.0064  170.5032 C.ar    1  UNL1        0.0000
     15 C         141.6101  143.4587  170.4235 C.ar    1  UNL1        0.0000
     16 C         140.8168  143.2210  169.1729 C.ar    1  UNL1        0.0000
     17 C         140.2589  143.8301  163.1142 C.ar    1  UNL1        0.0001
     18 C         141.2536  143.4542  162.0562 C.ar    1  UNL1        0.0000
     19 C         141.4507  144.3415  160.8630 C.ar    1  UNL1        0.0000
     20 C         140.6531  145.6047  160.7278 C.ar    1  UNL1        0.0000
     21 C         139.6585  145.9805  161.7858 C.ar    1  UNL1        0.0000
     22 C         139.4614  145.0932  162.9790 C.ar    1  UNL1        0.0000
     23 C         141.3653  137.2365  164.7764 C.3     1  UNL1        0.0005
     24 C         142.4109  138.2658  165.0886 C.3     1  UNL1        0.0047
     25 C         142.1678  139.7074  164.7534 C.3     1  UNL1        0.0261
     26 C         144.2007  141.1043  161.6443 C.ar    1  UNL1        0.1342
     27 C         145.1927  141.9952  162.3314 C.ar    1  UNL1        0.0365
     28 C         145.1764  142.1236  163.8258 C.ar    1  UNL1        0.0028
     29 C         144.1681  141.3610  164.6331 C.ar    1  UNL1       -0.0044
     30 C         143.1761  140.4701  163.9460 C.ar    1  UNL1       -0.0232
     31 C         143.1924  140.3417  162.4516 C.ar    1  UNL1        0.0082
     32 C         142.2004  139.4507  161.7646 C.3     1  UNL1        0.0350
     33 C         140.8161  139.9514  161.4765 C.3     1  UNL1        0.0465
     34 C         139.8796  139.1291  160.6418 C.2     1  UNL1        0.0507
     35 O         139.2221  139.7332  159.4365 O.co2   1  UNL1       -0.5492
     36 O         139.6005  137.7027  161.0125 O.co2   1  UNL1       -0.5492
     37 O         144.2170  140.9759  160.1499 O.3     1  UNL1       -0.4758
     38 C         143.4681  141.9627  159.3042 C.3     1  UNL1        0.2058
     39 C         142.4034  141.4864  158.3610 C.3     1  UNL1        0.0532
     40 C         142.3643  140.0474  157.9390 C.3     1  UNL1        0.0455
     41 O         144.2483  140.4620  156.1987 O.co2   1  UNL1       -0.5492
     42 C         143.4008  139.5144  156.9948 C.2     1  UNL1        0.0505
     43 O         143.5899  138.0337  156.8468 O.co2   1  UNL1       -0.5492
@<TRIPOS>UNITY_ATOM_ATTR
35 1
charge -1
41 1
charge -1
@<TRIPOS>BOND
     1    41    42   ar
     2    42    43   ar
     3    42    40    1
     4    40    39    1
     5    39    38    1
     6    38    37    1
     7    37    26    1
     8    26    27   ar
     9    27    28   ar
    10    28    29   ar
    11    29    30   ar
    12    30    25    1
    13    25    24    1
    14    24    23    1
    15    23     1    1
    16     1     2    1
    17     2     3    1
    18     3     4    1
    19     4     5    1
    20     5     6   ar
    21     6     7   ar
    22     7    17    1
    23    17    18   ar
    24    18    19   ar
    25    19    20   ar
    26    20    21   ar
    27    21    22   ar
    28     7     8   ar
    29     8     9   ar
    30     9    11    1
    31    11    12   ar
    32    12    13   ar
    33    13    14   ar
    34    14    15   ar
    35    15    16   ar
    36     9    10   ar
    37    30    31   ar
    38    31    32    1
    39    32    33    1
    40    33    34    1
    41    34    35   ar
    42    34    36   ar
    43    31    26   ar
    44    10     5   ar
    45    22    17   ar
    46    16    11   ar
@<TRIPOS>MOLECULE
*****
 43 46 0 0 0
SMALL
GASTEIGER

@<TRIPOS>ATOM
      1 C         142.8899  139.5655  169.7249 C.3     1  UNL1        0.0038
      2 C         142.9956  141.0111  170.1110 C.3     1  UNL1        0.0473
      3 C         141.7656  141.7740  170.5052 C.3     1  UNL1        0.2054
      4 O         141.2038  142.8177  169.5859 O.3     1  UNL1       -0.4755
      5 C         140.6282  142.4177  168.2598 C.ar    1  UNL1        0.1386
      6 C         139.9980  141.0668  168.0925 C.ar    1  UNL1        0.0369
      7 C         139.4223  140.6668  166.7663 C.ar    1  UNL1        0.0030
      8 C         139.4769  141.6177  165.6075 C.ar    1  UNL1        0.0002
      9 C         140.1071  142.9685  165.7748 C.ar    1  UNL1        0.0030
     10 C         140.6827  143.3686  167.1009 C.ar    1  UNL1        0.0369
     11 C         140.1617  143.9194  164.6160 C.ar    1  UNL1        0.0001
     12 C         141.4871  144.3624  164.0710 C.ar    1  UNL1        0.0000
     13 C         141.5416  145.3132  162.9122 C.ar    1  UNL1        0.0000
     14 C         140.2707  145.8211  162.2983 C.ar    1  UNL1        0.0000
     15 C         138.9453  145.3781  162.8433 C.ar    1  UNL1        0.0000
     16 C         138.8908  144.4273  164.0021 C.ar    1  UNL1        0.0000
     17 C         138.7922  139.3159  166.5990 C.ar    1  UNL1        0.0001
     18 C         139.2094  138.4292  165.4633 C.ar    1  UNL1        0.0000
     19 C         138.5792  137.0783  165.2960 C.ar    1  UNL1        0.0000
     20 C         137.5318  136.6142  166.2643 C.ar    1  UNL1        0.0000
     21 C         137.1146  137.5009  167.3999 C.ar    1  UNL1        0.0000
     22 C         137.7448  138.8518  167.5672 C.ar    1  UNL1        0.0000
     23 C         142.5511  139.1893  168.3130 C.3     1  UNL1        0.0005
     24 C         143.1664  139.9390  167.1687 C.3     1  UNL1        0.0047
     25 C         142.7188  139.6628  165.7640 C.3     1  UNL1        0.0261
     26 C         142.9207  141.3733  162.1885 C.ar    1  UNL1        0.1342
     27 C         144.0117  142.3772  162.4158 C.ar    1  UNL1        0.0365
     28 C         144.6718  142.4764  163.7591 C.ar    1  UNL1        0.0028
     29 C         144.2409  141.5716  164.8751 C.ar    1  UNL1       -0.0044
     30 C         143.1498  140.5677  164.6479 C.ar    1  UNL1       -0.0232
     31 C         142.4898  140.4685  163.3046 C.ar    1  UNL1        0.0082
     32 C         141.3987  139.4644  163.0774 C.3     1  UNL1        0.0350
     33 C         141.7311  138.1047  162.5382 C.3     1  UNL1        0.0465
     34 C         142.7048  137.9644  161.4059 C.2     1  UNL1        0.0507
     35 O         142.2066  137.8949  159.9927 O.co2   1  UNL1       -0.5492
     36 O         144.1765  137.8935  161.6867 O.co2   1  UNL1       -0.5492
     37 O         142.2606  141.2741  160.8452 O.3     1  UNL1       -0.4758
     38 C         141.1242  142.1896  160.4986 C.3     1  UNL1        0.2058
     39 C         139.9010  142.2285  161.3660 C.3     1  UNL1        0.0532
     40 C         138.7022  141.4003  161.0096 C.3     1  UNL1        0.0455
     41 O         136.9561  141.7368  162.9038 O.co2   1  UNL1       -0.5492
     42 C         137.8349  140.8310  162.0930 C.2     1  UNL1        0.0505
     43 O         137.8465  139.3561  162.3656 O.co2   1  UNL1       -0.5492
@<TRIPOS>UNITY_ATOM_ATTR
35 1
charge -1
41 1
charge -1
@<TRIPOS>BOND
     1    41    42   ar
     2    42    43   ar
     3    42    40    1
     4    40    39    1
     5    39    38    1
     6    38    37    1
     7    37    26    1
     8    26    27   ar
     9    27    28   ar
    10    28    29   ar
    11    29    30   ar
    12    30    25    1
    13    25    24    1
    14    24    23    1
    15    23     1    1
    16     1     2    1
    17     2     3    1
    18     3     4    1
    19     4     5    1
    20     5     6   ar
    21     6     7   ar
    22     7    17    1
    23    17    18   ar
    24    18    19   ar
    25    19    20   ar
    26    20    21   ar
    27    21    22   ar
    28     7     8   ar
    29     8     9   ar
    30     9    11    1
    31    11    12   ar
    32    12    13   ar
    33    13    14   ar
    34    14    15   ar
    35    15    16   ar
    36     9    10   ar
    37    30    31   ar
    38    31    32    1
    39    32    33    1
    40    33    34    1
    41    34    35   ar
    42    34    36   ar
    43    31    26   ar
    44    10     5   ar
    45    22    17   ar
    46    16    11   ar
@<TRIPOS>MOLECULE
*****
 43 46 0 0 0
SMALL
GASTEIGER

@<TRIPOS>ATOM
      1 C         142.8921  138.2513  157.5048 C.3     1  UNL1        0.0038
      2 C         141.6493  137.4207  157.3804 C.3     1  UNL1        0.0473
      3 C         140.3102  138.0870  157.2665 C.3     1  UNL1        0.2054
      4 O         139.3212  137.9797  158.3891 O.3     1  UNL1       -0.4755
      5 C         139.3305  138.9919  159.4961 C.ar    1  UNL1        0.1386
      6 C         139.0524  138.5635  160.9064 C.ar    1  UNL1        0.0369
      7 C         139.0617  139.5757  162.0134 C.ar    1  UNL1        0.0030
      8 C         139.3491  141.0163  161.7100 C.ar    1  UNL1        0.0002
      9 C         139.6273  141.4447  160.2997 C.ar    1  UNL1        0.0030
     10 C         139.6179  140.4326  159.1927 C.ar    1  UNL1        0.0369
     11 C         139.9147  142.8854  159.9963 C.ar    1  UNL1        0.0001
     12 C         139.9322  143.3634  158.5747 C.ar    1  UNL1        0.0000
     13 C         140.2196  144.8040  158.2714 C.ar    1  UNL1        0.0000
     14 C         140.4896  145.7665  159.3897 C.ar    1  UNL1        0.0000
     15 C         140.4721  145.2885  160.8113 C.ar    1  UNL1        0.0000
     16 C         140.1847  143.8479  161.1146 C.ar    1  UNL1        0.0000
     17 C         138.7836  139.1473  163.4238 C.ar    1  UNL1        0.0001
     18 C         138.8891  137.6997  163.8025 C.ar    1  UNL1        0.0000
     19 C         138.6109  137.2713  165.2129 C.ar    1  UNL1        0.0000
     20 C         138.2273  138.2905  166.2445 C.ar    1  UNL1        0.0000
     21 C         138.1219  139.7380  165.8657 C.ar    1  UNL1        0.0000
     22 C         138.4000  140.1664  164.4554 C.ar    1  UNL1        0.0000
     23 C         142.9879  139.3027  158.5703 C.3     1  UNL1        0.0005
     24 C         142.9448  138.9102  160.0175 C.3     1  UNL1        0.0047
     25 C         142.9175  139.9676  161.0809 C.3     1  UNL1        0.0261
     26 C         142.3269  140.2720  164.9935 C.ar    1  UNL1        0.1342
     27 C         142.1421  138.8306  165.3653 C.ar    1  UNL1        0.0365
     28 C         142.2157  137.7682  164.3089 C.ar    1  UNL1        0.0028
     29 C         142.4742  138.1472  162.8808 C.ar    1  UNL1       -0.0044
     30 C         142.6590  139.5886  162.5091 C.ar    1  UNL1       -0.0232
     31 C         142.5854  140.6510  163.5654 C.ar    1  UNL1        0.0082
     32 C         142.7703  142.0924  163.1936 C.3     1  UNL1        0.0350
     33 C         144.0587  142.7904  163.5144 C.3     1  UNL1        0.0465
     34 C         144.0677  143.9464  164.4702 C.2     1  UNL1        0.0507
     35 O         144.5793  143.7600  165.8679 O.co2   1  UNL1       -0.5492
     36 O         143.5652  145.2888  164.0283 O.co2   1  UNL1       -0.5492
     37 O         142.2533  141.3344  166.0499 O.3     1  UNL1       -0.4758
     38 C         140.9275  141.9246  166.4289 C.3     1  UNL1        0.2058
     39 C         140.5696  143.3119  165.9847 C.3     1  UNL1        0.0532
     40 C         139.8054  143.5177  164.7103 C.3     1  UNL1        0.0455
     41 O         137.6429  144.3523  163.5369 O.co2   1  UNL1       -0.5492
     42 C         138.5921  144.3996  164.6975 C.2     1  UNL1        0.0505
     43 O         138.3280  145.3287  165.8451 O.co2   1  UNL1       -0.5492
@<TRIPOS>UNITY_ATOM_ATTR
35 1
charge -1
41 1
charge -1
@<TRIPOS>BOND
     1    41    42   ar
     2    42    43   ar
     3    42    40    1
     4    40    39    1
     5    39    38    1
     6    38    37    1
     7    37    26    1
     8    26    27   ar
     9    27    28   ar
    10    28    29   ar
    11    29    30   ar
    12    30    25    1
    13    25    24    1
    14    24    23    1
    15    23     1    1
    16     1     2    1
    17     2     3    1
    18     3     4    1
    19     4     5    1
    20     5     6   ar
    21     6     7   ar
    22     7    17    1
    23    17    18   ar
    24    18    19   ar
    25    19    20   ar
    26    20    21   ar
    27    21    22   ar
    28     7     8   ar
    29     8     9   ar
    30     9    11    1
    31    11    12   ar
    32    12    13   ar
    33    13    14   ar
    34    14    15   ar
    35    15    16   ar
    36     9    10   ar
    37    30    31   ar
    38    31    32    1
    39    32    33    1
    40    33    34    1
    41    34    35   ar
    42    34    36   ar
    43    31    26   ar
    44    10     5   ar
    45    22    17   ar
    46    16    11   ar
@<TRIPOS>MOLECULE
*****
 43 46 0 0 0
SMALL
GASTEIGER

@<TRIPOS>ATOM
      1 C         139.2331  143.5993  161.2216 C.3     1  UNL1        0.0038
      2 C         139.9035  144.9309  161.3870 C.3     1  UNL1        0.0473
      3 C         141.3923  145.0441  161.2427 C.3     1  UNL1        0.2054
      4 O         142.0718  144.4933  160.0242 O.3     1  UNL1       -0.4755
      5 C         142.6230  143.0983  160.0390 C.ar    1  UNL1        0.1386
      6 C         143.0815  142.4595  158.7616 C.ar    1  UNL1        0.0369
      7 C         143.6326  141.0645  158.7764 C.ar    1  UNL1        0.0030
      8 C         143.7253  140.3083  160.0685 C.ar    1  UNL1        0.0002
      9 C         143.2668  140.9472  161.3459 C.ar    1  UNL1        0.0030
     10 C         142.7156  142.3421  161.3311 C.ar    1  UNL1        0.0369
     11 C         143.3594  140.1909  162.6380 C.ar    1  UNL1        0.0001
     12 C         142.1313  139.5670  163.2316 C.ar    1  UNL1        0.0000
     13 C         142.2241  138.8108  164.5237 C.ar    1  UNL1        0.0000
     14 C         143.5449  138.6786  165.2222 C.ar    1  UNL1        0.0000
     15 C         144.7730  139.3026  164.6287 C.ar    1  UNL1        0.0000
     16 C         144.6803  140.0587  163.3366 C.ar    1  UNL1        0.0000
     17 C         144.0911  140.4256  157.4990 C.ar    1  UNL1        0.0001
     18 C         143.3409  139.2559  156.9340 C.ar    1  UNL1        0.0000
     19 C         143.7994  138.6171  155.6566 C.ar    1  UNL1        0.0000
     20 C         145.0081  139.1480  154.9443 C.ar    1  UNL1        0.0000
     21 C         145.7582  140.3176  155.5093 C.ar    1  UNL1        0.0000
     22 C         145.2997  140.9564  156.7866 C.ar    1  UNL1        0.0000
     23 C         138.3705  143.0523  162.3200 C.3     1  UNL1        0.0005
     24 C         138.9204  142.0248  163.2644 C.3     1  UNL1        0.0047
     25 C         139.1882  142.3880  164.6949 C.3     1  UNL1        0.0261
     26 C         142.3315  141.6099  166.9892 C.ar    1  UNL1        0.1342
     27 C         143.4038  142.3725  166.2691 C.ar    1  UNL1        0.0365
     28 C         143.0709  143.1403  165.0243 C.ar    1  UNL1        0.0028
     29 C         141.6657  143.1454  164.4995 C.ar    1  UNL1       -0.0044
     30 C         140.5934  142.3828  165.2197 C.ar    1  UNL1       -0.0232
     31 C         140.9264  141.6150  166.4645 C.ar    1  UNL1        0.0082
     32 C         139.8540  140.8524  167.1846 C.3     1  UNL1        0.0350
     33 C         139.6789  139.3843  166.9314 C.3     1  UNL1        0.0465
     34 C         138.4699  138.8894  166.1943 C.2     1  UNL1        0.0507
     35 O         138.4965  138.7790  164.6985 O.co2   1  UNL1       -0.5492
     36 O         137.2343  138.5048  166.9529 O.co2   1  UNL1       -0.5492
     37 O         142.6645  140.8421  168.2341 O.3     1  UNL1       -0.4758
     38 C         143.0638  141.5728  169.4817 C.3     1  UNL1        0.2058
     39 C         142.4508  142.9043  169.7998 C.3     1  UNL1        0.0532
     40 C         140.9587  143.0573  169.8201 C.3     1  UNL1        0.0455
     41 O         138.8754  141.6237  170.4156 O.co2   1  UNL1       -0.5492
     42 C         140.1419  142.3107  170.8328 C.2     1  UNL1        0.0505
     43 O         140.5916  142.2510  172.2625 O.co2   1  UNL1       -0.5492
@<TRIPOS>UNITY_ATOM_ATTR
35 1
charge -1
41 1
charge -1
@<TRIPOS>BOND
     1    41    42   ar
     2    42    43   ar
     3    42    40    1
     4    40    39    1
     5    39    38    1
     6    38    37    1
     7    37    26    1
     8    26    27   ar
     9    27    28   ar
    10    28    29   ar
    11    29    30   ar
    12    30    25    1
    13    25    24    1
    14    24    23    1
    15    23     1    1
    16     1     2    1
    17     2     3    1
    18     3     4    1
    19     4     5    1
    20     5     6   ar
    21     6     7   ar
    22     7    17    1
    23    17    18   ar
    24    18    19   ar
    25    19    20   ar
    26    20    21   ar
    27    21    22   ar
    28     7     8   ar
    29     8     9   ar
    30     9    11    1
    31    11    12   ar
    32    12    13   ar
    33    13    14   ar
    34    14    15   ar
    35    15    16   ar
    36     9    10   ar
    37    30    31   ar
    38    31    32    1
    39    32    33    1
    40    33    34    1
    41    34    35   ar
    42    34    36   ar
    43    31    26   ar
    44    10     5   ar
    45    22    17   ar
    46    16    11   ar
@<TRIPOS>MOLECULE
*****
 43 46 0 0 0
SMALL
GASTEIGER

@<TRIPOS>ATOM
      1 C         141.6121  144.2613  160.7170 C.3     1  UNL1        0.0038
      2 C         140.9001  144.8679  159.5444 C.3     1  UNL1        0.0473
      3 C         139.8376  144.0888  158.8272 C.3     1  UNL1        0.2054
      4 O         138.8534  143.2686  159.6073 O.3     1  UNL1       -0.4755
      5 C         139.1843  141.8536  159.9790 C.ar    1  UNL1        0.1386
      6 C         138.9106  141.3596  161.3686 C.ar    1  UNL1        0.0369
      7 C         139.2415  139.9445  161.7403 C.ar    1  UNL1        0.0030
      8 C         139.8460  139.0235  160.7223 C.ar    1  UNL1        0.0002
      9 C         140.1197  139.5175  159.3327 C.ar    1  UNL1        0.0030
     10 C         139.7888  140.9325  158.9610 C.ar    1  UNL1        0.0369
     11 C         140.7242  138.5964  158.3147 C.ar    1  UNL1        0.0001
     12 C         142.2116  138.4097  158.2619 C.ar    1  UNL1        0.0000
     13 C         142.8160  137.4886  157.2439 C.ar    1  UNL1        0.0000
     14 C         141.9331  136.7543  156.2789 C.ar    1  UNL1        0.0000
     15 C         140.4458  136.9410  156.3318 C.ar    1  UNL1        0.0000
     16 C         139.8413  137.8621  157.3497 C.ar    1  UNL1        0.0000
     17 C         138.9679  139.4505  163.1299 C.ar    1  UNL1        0.0001
     18 C         139.1936  138.0073  163.4709 C.ar    1  UNL1        0.0000
     19 C         138.9199  137.5133  164.8605 C.ar    1  UNL1        0.0000
     20 C         138.4205  138.4625  165.9092 C.ar    1  UNL1        0.0000
     21 C         138.1948  139.9056  165.5682 C.ar    1  UNL1        0.0000
     22 C         138.4685  140.3996  164.1786 C.ar    1  UNL1        0.0000
     23 C         142.5639  143.1209  160.5085 C.3     1  UNL1        0.0005
     24 C         142.5986  141.9844  161.4870 C.3     1  UNL1        0.0047
     25 C         141.9935  142.1491  162.8495 C.3     1  UNL1        0.0261
     26 C         142.1841  140.3400  166.3767 C.ar    1  UNL1        0.1342
     27 C         142.5502  138.9461  165.9609 C.ar    1  UNL1        0.0365
     28 C         142.7308  138.6198  164.5080 C.ar    1  UNL1        0.0028
     29 C         142.5452  139.6875  163.4709 C.ar    1  UNL1       -0.0044
     30 C         142.1791  141.0814  163.8867 C.ar    1  UNL1       -0.0232
     31 C         141.9986  141.4076  165.3396 C.ar    1  UNL1        0.0082
     32 C         141.6324  142.8016  165.7554 C.3     1  UNL1        0.0350
     33 C         140.1905  143.1808  165.9200 C.3     1  UNL1        0.0465
     34 C         139.6311  144.3490  165.1634 C.2     1  UNL1        0.0507
     35 O         138.2791  144.8939  165.5174 O.co2   1  UNL1       -0.5492
     36 O         140.4236  144.9722  164.0528 O.co2   1  UNL1       -0.5492
     37 O         142.0036  140.6662  167.8296 O.3     1  UNL1       -0.4758
     38 C         141.0046  139.9059  168.6505 C.3     1  UNL1        0.2058
     39 C         139.6074  140.4293  168.8055 C.3     1  UNL1        0.0532
     40 C         139.2305  141.2102  170.0295 C.3     1  UNL1        0.0455
     41 O         140.7573  143.2479  170.5459 O.co2   1  UNL1       -0.5492
     42 C         140.2960  141.8565  170.8644 C.2     1  UNL1        0.0505
     43 O         140.9003  141.1116  172.0175 O.co2   1  UNL1       -0.5492
@<TRIPOS>UNITY_ATOM_ATTR
35 1
charge -1
41 1
charge -1
@<TRIPOS>BOND
     1    41    42   ar
     2    42    43   ar
     3    42    40    1
     4    40    39    1
     5    39    38    1
     6    38    37    1
     7    37    26    1
     8    26    27   ar
     9    27    28   ar
    10    28    29   ar
    11    29    30   ar
    12    30    25    1
    13    25    24    1
    14    24    23    1
    15    23     1    1
    16     1     2    1
    17     2     3    1
    18     3     4    1
    19     4     5    1
    20     5     6   ar
    21     6     7   ar
    22     7    17    1
    23    17    18   ar
    24    18    19   ar
    25    19    20   ar
    26    20    21   ar
    27    21    22   ar
    28     7     8   ar
    29     8     9   ar
    30     9    11    1
    31    11    12   ar
    32    12    13   ar
    33    13    14   ar
    34    14    15   ar
    35    15    16   ar
    36     9    10   ar
    37    30    31   ar
    38    31    32    1
    39    32    33    1
    40    33    34    1
    41    34    35   ar
    42    34    36   ar
    43    31    26   ar
    44    10     5   ar
    45    22    17   ar
    46    16    11   ar
