@<TRIPOS>MOLECULE
*****
 46 52 0 0 0
SMALL
GASTEIGER

@<TRIPOS>ATOM
      1 N         138.7434  139.1378  160.9561 N.3     1  UNL1       -0.2676
      2 C         139.2898  138.5695  159.6800 C.3     1  UNL1        0.0746
      3 C         139.5459  139.4692  158.5075 C.3     1  UNL1        0.0449
      4 C         139.2555  140.9372  158.6111 C.3     1  UNL1        0.1391
      5 C         138.7092  141.5055  159.8872 C.3     1  UNL1        0.0449
      6 C         138.4531  140.6057  161.0597 C.3     1  UNL1        0.0746
      7 C         139.0152  142.4172  158.5663 C.2     1  UNL1        0.2529
      8 O         138.4767  143.2572  159.6862 O.2     1  UNL1       -0.2724
      9 N         139.4081  142.9096  157.2049 N.am    1  UNL1       -0.1907
     10 C         139.8912  141.7340  156.4083 C.2     1  UNL1        0.3219
     11 O         140.3822  141.7708  154.9915 O.2     1  UNL1       -0.2512
     12 N         139.7969  140.5150  157.2773 N.am    1  UNL1       -0.2222
     13 C         140.1772  139.1189  156.8821 C.ar    1  UNL1        0.1453
     14 C         141.5726  138.6246  157.1240 C.ar    1  UNL1        0.0922
     15 C         141.9528  137.2285  156.7288 C.ar    1  UNL1        0.2259
     16 O         143.3482  136.7343  156.9707 O.3     1  UNL1       -0.4919
     17 N         140.9376  136.3265  156.0917 N.ar    1  UNL1       -0.1894
     18 C         139.5422  136.8208  155.8497 C.ar    1  UNL1        0.2027
     19 N         139.1620  138.2169  156.2450 N.ar    1  UNL1       -0.2084
     20 H         143.9824  137.2976  157.3687 H       1  UNL1        0.2938
     21 C         139.3313  144.3285  156.7245 C.ar    1  UNL1        0.0622
     22 C         138.5230  144.6653  155.5067 C.ar    1  UNL1        0.0154
     23 C         138.4462  146.0842  155.0263 C.ar    1  UNL1        0.0013
     24 C         139.1777  147.1663  155.7637 C.ar    1  UNL1        0.0001
     25 C         139.9860  146.8295  156.9816 C.ar    1  UNL1        0.0013
     26 C         140.0628  145.4106  157.4620 C.ar    1  UNL1        0.0154
     27 C         139.1009  148.5852  155.2833 C.ar    1  UNL1        0.0000
     28 C         139.6491  148.9516  153.9360 C.ar    1  UNL1        0.0000
     29 C         139.5723  150.3705  153.4556 C.ar    1  UNL1        0.0015
     30 C         138.9473  151.4231  154.3225 C.ar    1  UNL1        0.0171
     31 C         138.3992  151.0567  155.6699 C.ar    1  UNL1        0.0015
     32 C         138.4760  149.6378  156.1502 C.ar    1  UNL1        0.0000
     33 C         138.8706  152.8420  153.8421 C.ar    1  UNL1        0.0754
     34 C         139.9952  153.8345  153.8409 C.ar    1  UNL1        0.0409
     35 C         139.4754  155.1234  153.2766 C.ar    1  UNL1        0.1214
     36 N         138.0294  154.9275  152.9291 N.ar    1  UNL1       -0.1711
     37 N         137.6556  153.5175  153.2786 N.ar    1  UNL1       -0.2757
     38 H         136.7686  153.1074  153.1591 H       1  UNL1        0.1889
     39 C         138.4874  138.2380  162.1287 C.3     1  UNL1        0.1183
     40 C         141.1063  137.2572  163.2148 C.3     1  UNL1        0.0323
     41 C         140.2410  138.1593  164.0441 C.ar    1  UNL1       -0.0069
     42 C         140.6852  138.5709  165.4164 C.ar    1  UNL1       -0.0015
     43 C         139.8200  139.4730  166.2456 C.ar    1  UNL1        0.0203
     44 C         138.5106  139.9633  165.7027 C.ar    1  UNL1        0.0985
     45 N         138.0663  139.5517  164.3303 N.ar    1  UNL1       -0.2471
     46 C         138.9315  138.6497  163.5010 C.ar    1  UNL1        0.0712
@<TRIPOS>BOND
     1    40    41    1
     2    41    42   ar
     3    42    43   ar
     4    43    44   ar
     5    44    45   ar
     6    45    46   ar
     7    46    39    1
     8    39     1    1
     9     1     2    1
    10     2     3    1
    11     3     4    1
    12     4     5    1
    13     5     6    1
    14     4     7    1
    15     7     8    2
    16     7     9   am
    17     9    21    1
    18    21    22   ar
    19    22    23   ar
    20    23    24   ar
    21    24    27    1
    22    27    28   ar
    23    28    29   ar
    24    29    30   ar
    25    30    33    1
    26    33    34   ar
    27    34    35   ar
    28    35    36   ar
    29    36    37   ar
    30    30    31   ar
    31    31    32   ar
    32    24    25   ar
    33    25    26   ar
    34     9    10   am
    35    10    11    2
    36    10    12   am
    37    12    13    1
    38    13    14   ar
    39    14    15   ar
    40    15    16    1
    41    15    17   ar
    42    17    18   ar
    43    18    19   ar
    44    46    41   ar
    45     6     1    1
    46    26    21   ar
    47    19    13   ar
    48    12     4    1
    49    32    27   ar
    50    37    33   ar
    51    37    38    1
    52    16    20    1
@<TRIPOS>MOLECULE
*****
 46 52 0 0 0
SMALL
GASTEIGER

@<TRIPOS>ATOM
      1 N         140.7222  143.5140  159.8718 N.3     1  UNL1       -0.2676
      2 C         139.9615  143.6901  158.5911 C.3     1  UNL1        0.0746
      3 C         139.9655  142.6002  157.5605 C.3     1  UNL1        0.0449
      4 C         140.7302  141.3342  157.8107 C.3     1  UNL1        0.1391
      5 C         141.4909  141.1582  159.0914 C.3     1  UNL1        0.0449
      6 C         141.4868  142.2480  160.1220 C.3     1  UNL1        0.0746
      7 C         141.4450  140.0200  157.9200 C.2     1  UNL1        0.2529
      8 O         142.2813  139.5650  159.0791 O.2     1  UNL1       -0.2724
      9 N         141.1767  139.2407  156.6667 N.am    1  UNL1       -0.1907
     10 C         140.2960  140.0733  155.7828 C.2     1  UNL1        0.3219
     11 O         139.7816  139.6810  154.4295 O.2     1  UNL1       -0.2512
     12 N         140.0200  141.3671  156.4898 N.am    1  UNL1       -0.2222
     13 C         139.1813  142.4957  155.9677 C.ar    1  UNL1        0.1453
     14 C         139.8174  143.5981  155.1738 C.ar    1  UNL1        0.0922
     15 C         138.9785  144.7266  154.6517 C.ar    1  UNL1        0.2259
     16 O         139.6146  145.8290  153.8578 O.3     1  UNL1       -0.4919
     17 N         137.5035  144.7530  154.9235 N.ar    1  UNL1       -0.1894
     18 C         136.8674  143.6507  155.7174 C.ar    1  UNL1        0.2027
     19 N         137.7063  142.5221  156.2394 N.ar    1  UNL1       -0.2084
     20 H         140.5359  145.8126  153.6880 H       1  UNL1        0.2938
     21 C         141.6976  137.8696  156.3525 C.ar    1  UNL1        0.0622
     22 C         143.1709  137.5952  156.4122 C.ar    1  UNL1        0.0154
     23 C         143.6918  136.2241  156.0980 C.ar    1  UNL1        0.0013
     24 C         142.7393  135.1274  155.7240 C.ar    1  UNL1        0.0001
     25 C         141.2658  135.4018  155.6643 C.ar    1  UNL1        0.0013
     26 C         140.7449  136.7729  155.9786 C.ar    1  UNL1        0.0154
     27 C         143.2602  133.7563  155.4098 C.ar    1  UNL1        0.0000
     28 C         142.7941  133.0414  154.1762 C.ar    1  UNL1        0.0000
     29 C         143.3149  131.6703  153.8620 C.ar    1  UNL1        0.0015
     30 C         144.3020  131.0140  154.7814 C.ar    1  UNL1        0.0171
     31 C         144.7681  131.7289  156.0150 C.ar    1  UNL1        0.0015
     32 C         144.2471  133.1001  156.3292 C.ar    1  UNL1        0.0000
     33 C         144.8228  129.6429  154.4672 C.ar    1  UNL1        0.0754
     34 C         144.9693  128.5110  155.4404 C.ar    1  UNL1        0.0409
     35 C         145.5257  127.3316  154.6993 C.ar    1  UNL1        0.1214
     36 N         145.7231  127.7346  153.2680 N.ar    1  UNL1       -0.1711
     37 N         145.2887  129.1631  153.1246 N.ar    1  UNL1       -0.2757
     38 H         145.3063  129.6928  152.2949 H       1  UNL1        0.1889
     39 C         140.7182  144.6039  160.9024 C.3     1  UNL1        0.1183
     40 C         141.8589  145.2710  163.5957 C.3     1  UNL1        0.0323
     41 C         140.4381  144.8050  163.4776 C.ar    1  UNL1       -0.0069
     42 C         139.5876  144.6725  164.7060 C.ar    1  UNL1       -0.0015
     43 C         138.1667  144.2064  164.5878 C.ar    1  UNL1        0.0203
     44 C         137.5963  143.8729  163.2412 C.ar    1  UNL1        0.0985
     45 N         138.4468  144.0054  162.0127 N.ar    1  UNL1       -0.2471
     46 C         139.8677  144.4714  162.1309 C.ar    1  UNL1        0.0712
@<TRIPOS>BOND
     1    40    41    1
     2    41    42   ar
     3    42    43   ar
     4    43    44   ar
     5    44    45   ar
     6    45    46   ar
     7    46    39    1
     8    39     1    1
     9     1     2    1
    10     2     3    1
    11     3     4    1
    12     4     5    1
    13     5     6    1
    14     4     7    1
    15     7     8    2
    16     7     9   am
    17     9    21    1
    18    21    22   ar
    19    22    23   ar
    20    23    24   ar
    21    24    27    1
    22    27    28   ar
    23    28    29   ar
    24    29    30   ar
    25    30    33    1
    26    33    34   ar
    27    34    35   ar
    28    35    36   ar
    29    36    37   ar
    30    30    31   ar
    31    31    32   ar
    32    24    25   ar
    33    25    26   ar
    34     9    10   am
    35    10    11    2
    36    10    12   am
    37    12    13    1
    38    13    14   ar
    39    14    15   ar
    40    15    16    1
    41    15    17   ar
    42    17    18   ar
    43    18    19   ar
    44    46    41   ar
    45     6     1    1
    46    26    21   ar
    47    19    13   ar
    48    12     4    1
    49    32    27   ar
    50    37    33   ar
    51    37    38    1
    52    16    20    1
@<TRIPOS>MOLECULE
*****
 46 52 0 0 0
SMALL
GASTEIGER

@<TRIPOS>ATOM
      1 N         138.5701  142.0073  160.8544 N.3     1  UNL1       -0.2676
      2 C         139.0680  142.7857  159.6728 C.3     1  UNL1        0.0746
      3 C         139.7916  142.0829  158.5626 C.3     1  UNL1        0.0449
      4 C         140.0173  140.6017  158.6341 C.3     1  UNL1        0.1391
      5 C         139.5195  139.8233  159.8157 C.3     1  UNL1        0.0449
      6 C         138.7959  140.5261  160.9258 C.3     1  UNL1        0.0746
      7 C         140.3156  139.1331  158.5669 C.2     1  UNL1        0.2529
      8 O         139.9425  138.1096  159.5981 O.2     1  UNL1       -0.2724
      9 N         141.0524  138.8678  157.2875 N.am    1  UNL1       -0.1907
     10 C         141.2095  140.1724  156.5640 C.2     1  UNL1        0.3219
     11 O         141.8872  140.3706  155.2407 O.2     1  UNL1       -0.2512
     12 N         140.5698  141.2440  157.3962 N.am    1  UNL1       -0.2222
     13 C         140.4956  142.7018  157.0513 C.ar    1  UNL1        0.1453
     14 C         141.5939  143.6303  157.4775 C.ar    1  UNL1        0.0922
     15 C         141.5196  145.0882  157.1325 C.ar    1  UNL1        0.2259
     16 O         142.6179  146.0167  157.5587 O.3     1  UNL1       -0.4919
     17 N         140.3470  145.6177  156.3612 N.ar    1  UNL1       -0.1894
     18 C         139.2488  144.6892  155.9349 C.ar    1  UNL1        0.2027
     19 N         139.3231  143.2313  156.2800 N.ar    1  UNL1       -0.2084
     20 H         143.3503  145.6860  158.0405 H       1  UNL1        0.2938
     21 C         141.5454  137.5324  156.8146 C.ar    1  UNL1        0.0622
     22 C         140.7789  136.7769  155.7699 C.ar    1  UNL1        0.0154
     23 C         141.2720  135.4415  155.2971 C.ar    1  UNL1        0.0013
     24 C         142.5316  134.8617  155.8689 C.ar    1  UNL1        0.0001
     25 C         143.2981  135.6172  156.9137 C.ar    1  UNL1        0.0013
     26 C         142.8051  136.9526  157.3866 C.ar    1  UNL1        0.0154
     27 C         143.0246  133.5263  155.3961 C.ar    1  UNL1        0.0000
     28 C         142.5174  132.9534  154.1059 C.ar    1  UNL1        0.0000
     29 C         143.0105  131.6180  153.6330 C.ar    1  UNL1        0.0015
     30 C         144.0108  130.8555  154.4504 C.ar    1  UNL1        0.0171
     31 C         144.5181  131.4284  155.7405 C.ar    1  UNL1        0.0015
     32 C         144.0249  132.7638  156.2134 C.ar    1  UNL1        0.0000
     33 C         144.5039  129.5201  153.9775 C.ar    1  UNL1        0.0754
     34 C         144.1638  128.1901  154.5820 C.ar    1  UNL1        0.0409
     35 C         144.8733  127.1283  153.7952 C.ar    1  UNL1        0.1214
     36 N         145.6520  127.8020  152.7045 N.ar    1  UNL1       -0.1711
     37 N         145.4236  129.2803  152.8171 N.ar    1  UNL1       -0.2757
     38 H         145.8097  129.9717  152.2322 H       1  UNL1        0.1889
     39 C         137.8465  142.7102  161.9645 C.3     1  UNL1        0.1183
     40 C         139.1921  145.3358  162.5083 C.3     1  UNL1        0.0323
     41 C         139.2057  144.2562  163.5496 C.ar    1  UNL1       -0.0069
     42 C         139.8921  144.4894  164.8628 C.ar    1  UNL1       -0.0015
     43 C         139.9057  143.4098  165.9041 C.ar    1  UNL1        0.0203
     44 C         139.2329  142.0970  165.6322 C.ar    1  UNL1        0.0985
     45 N         138.5465  141.8638  164.3190 N.ar    1  UNL1       -0.2471
     46 C         138.5329  142.9433  163.2777 C.ar    1  UNL1        0.0712
@<TRIPOS>BOND
     1    40    41    1
     2    41    42   ar
     3    42    43   ar
     4    43    44   ar
     5    44    45   ar
     6    45    46   ar
     7    46    39    1
     8    39     1    1
     9     1     2    1
    10     2     3    1
    11     3     4    1
    12     4     5    1
    13     5     6    1
    14     4     7    1
    15     7     8    2
    16     7     9   am
    17     9    21    1
    18    21    22   ar
    19    22    23   ar
    20    23    24   ar
    21    24    27    1
    22    27    28   ar
    23    28    29   ar
    24    29    30   ar
    25    30    33    1
    26    33    34   ar
    27    34    35   ar
    28    35    36   ar
    29    36    37   ar
    30    30    31   ar
    31    31    32   ar
    32    24    25   ar
    33    25    26   ar
    34     9    10   am
    35    10    11    2
    36    10    12   am
    37    12    13    1
    38    13    14   ar
    39    14    15   ar
    40    15    16    1
    41    15    17   ar
    42    17    18   ar
    43    18    19   ar
    44    46    41   ar
    45     6     1    1
    46    26    21   ar
    47    19    13   ar
    48    12     4    1
    49    32    27   ar
    50    37    33   ar
    51    37    38    1
    52    16    20    1
@<TRIPOS>MOLECULE
*****
 46 52 0 0 0
SMALL
GASTEIGER

@<TRIPOS>ATOM
      1 N         138.6161  142.0416  160.3563 N.3     1  UNL1       -0.2676
      2 C         138.3678  142.4871  158.9457 C.3     1  UNL1        0.0746
      3 C         138.7962  141.6201  157.7990 C.3     1  UNL1        0.0449
      4 C         139.4729  140.3077  158.0630 C.3     1  UNL1        0.1391
      5 C         139.7212  139.8623  159.4737 C.3     1  UNL1        0.0449
      6 C         139.2928  140.7293  160.6203 C.3     1  UNL1        0.0746
      7 C         140.1568  138.9771  158.1713 C.2     1  UNL1        0.2529
      8 O         140.5323  138.2798  159.4451 O.2     1  UNL1       -0.2724
      9 N         140.3992  138.4661  156.7819 N.am    1  UNL1       -0.1907
     10 C         139.8652  139.4810  155.8150 C.2     1  UNL1        0.3219
     11 O         139.8978  139.3762  154.3191 O.2     1  UNL1       -0.2512
     12 N         139.2927  140.6191  156.6068 N.am    1  UNL1       -0.2222
     13 C         138.6524  141.8522  156.0416 C.ar    1  UNL1        0.1453
     14 C         139.4993  143.0310  155.6633 C.ar    1  UNL1        0.0922
     15 C         138.8589  144.2641  155.0981 C.ar    1  UNL1        0.2259
     16 O         139.7058  145.4429  154.7198 O.3     1  UNL1       -0.4919
     17 N         137.3715  144.3185  154.9113 N.ar    1  UNL1       -0.1894
     18 C         136.5246  143.1397  155.2897 C.ar    1  UNL1        0.2027
     19 N         137.1650  141.9066  155.8548 N.ar    1  UNL1       -0.2084
     20 H         140.6349  145.4089  154.8365 H       1  UNL1        0.2938
     21 C         141.0598  137.1682  156.4225 C.ar    1  UNL1        0.0622
     22 C         140.3728  136.2080  155.4974 C.ar    1  UNL1        0.0154
     23 C         141.0333  134.9101  155.1381 C.ar    1  UNL1        0.0013
     24 C         142.3808  134.5724  155.7038 C.ar    1  UNL1        0.0001
     25 C         143.0678  135.5327  156.6290 C.ar    1  UNL1        0.0013
     26 C         142.4073  136.8306  156.9883 C.ar    1  UNL1        0.0154
     27 C         143.0413  133.2745  155.3445 C.ar    1  UNL1        0.0000
     28 C         142.6357  132.5467  154.0972 C.ar    1  UNL1        0.0000
     29 C         143.2963  131.2488  153.7378 C.ar    1  UNL1        0.0015
     30 C         144.3624  130.6786  154.6258 C.ar    1  UNL1        0.0171
     31 C         144.7679  131.4065  155.8731 C.ar    1  UNL1        0.0015
     32 C         144.1074  132.7045  156.2325 C.ar    1  UNL1        0.0000
     33 C         145.0229  129.3807  154.2665 C.ar    1  UNL1        0.0754
     34 C         145.1898  128.1962  155.1714 C.ar    1  UNL1        0.0409
     35 C         145.9025  127.1229  154.4033 C.ar    1  UNL1        0.1214
     36 N         146.1761  127.6441  153.0236 N.ar    1  UNL1       -0.1711
     37 N         145.6324  129.0396  152.9391 N.ar    1  UNL1       -0.2757
     38 H         145.6692  129.6282  152.1507 H       1  UNL1        0.1889
     39 C         138.1876  142.9086  161.5030 C.3     1  UNL1        0.1183
     40 C         137.7544  143.3289  164.4417 C.3     1  UNL1        0.0323
     41 C         138.9985  143.8493  163.7850 C.ar    1  UNL1       -0.0069
     42 C         140.0260  144.5799  164.5977 C.ar    1  UNL1       -0.0015
     43 C         141.2702  145.1003  163.9410 C.ar    1  UNL1        0.0203
     44 C         141.4869  144.8902  162.4717 C.ar    1  UNL1        0.0985
     45 N         140.4593  144.1596  161.6590 N.ar    1  UNL1       -0.2471
     46 C         139.2151  143.6392  162.3156 C.ar    1  UNL1        0.0712
@<TRIPOS>BOND
     1    40    41    1
     2    41    42   ar
     3    42    43   ar
     4    43    44   ar
     5    44    45   ar
     6    45    46   ar
     7    46    39    1
     8    39     1    1
     9     1     2    1
    10     2     3    1
    11     3     4    1
    12     4     5    1
    13     5     6    1
    14     4     7    1
    15     7     8    2
    16     7     9   am
    17     9    21    1
    18    21    22   ar
    19    22    23   ar
    20    23    24   ar
    21    24    27    1
    22    27    28   ar
    23    28    29   ar
    24    29    30   ar
    25    30    33    1
    26    33    34   ar
    27    34    35   ar
    28    35    36   ar
    29    36    37   ar
    30    30    31   ar
    31    31    32   ar
    32    24    25   ar
    33    25    26   ar
    34     9    10   am
    35    10    11    2
    36    10    12   am
    37    12    13    1
    38    13    14   ar
    39    14    15   ar
    40    15    16    1
    41    15    17   ar
    42    17    18   ar
    43    18    19   ar
    44    46    41   ar
    45     6     1    1
    46    26    21   ar
    47    19    13   ar
    48    12     4    1
    49    32    27   ar
    50    37    33   ar
    51    37    38    1
    52    16    20    1
@<TRIPOS>MOLECULE
*****
 46 52 0 0 0
SMALL
GASTEIGER

@<TRIPOS>ATOM
      1 N         140.2704  142.0325  160.5672 N.3     1  UNL1       -0.2676
      2 C         139.8376  142.4849  159.2041 C.3     1  UNL1        0.0746
      3 C         140.0262  141.5837  158.0200 C.3     1  UNL1        0.0449
      4 C         140.6476  140.2303  158.1989 C.3     1  UNL1        0.1391
      5 C         141.0804  139.7779  159.5620 C.3     1  UNL1        0.0449
      6 C         140.8917  140.6791  160.7462 C.3     1  UNL1        0.0746
      7 C         141.2508  138.8571  158.2231 C.2     1  UNL1        0.2529
      8 O         141.7714  138.1440  159.4358 O.2     1  UNL1       -0.2724
      9 N         141.2422  138.3222  156.8217 N.am    1  UNL1       -0.1907
     10 C         140.6335  139.3648  155.9313 C.2     1  UNL1        0.3219
     11 O         140.4284  139.2486  154.4501 O.2     1  UNL1       -0.2512
     12 N         140.2661  140.5440  156.7825 N.am    1  UNL1       -0.2222
     13 C         139.6290  141.8140  156.3018 C.ar    1  UNL1        0.1453
     14 C         138.1357  141.9554  156.3139 C.ar    1  UNL1        0.0922
     15 C         137.4987  143.2255  155.8332 C.ar    1  UNL1        0.2259
     16 O         136.0054  143.3668  155.8453 O.3     1  UNL1       -0.4919
     17 N         138.3549  144.3542  155.3402 N.ar    1  UNL1       -0.1894
     18 C         139.8482  144.2128  155.3281 C.ar    1  UNL1        0.2027
     19 N         140.4852  142.9428  155.8088 N.ar    1  UNL1       -0.2084
     20 H         135.4706  142.6618  156.1532 H       1  UNL1        0.2938
     21 C         141.7525  136.9803  156.3869 C.ar    1  UNL1        0.0622
     22 C         140.9178  136.1151  155.4901 C.ar    1  UNL1        0.0154
     23 C         141.4281  134.7733  155.0553 C.ar    1  UNL1        0.0013
     24 C         142.7731  134.2967  155.5175 C.ar    1  UNL1        0.0001
     25 C         143.6079  135.1620  156.4144 C.ar    1  UNL1        0.0013
     26 C         143.0976  136.5038  156.8491 C.ar    1  UNL1        0.0154
     27 C         143.2834  132.9548  155.0827 C.ar    1  UNL1        0.0000
     28 C         142.8491  132.3771  153.7684 C.ar    1  UNL1        0.0000
     29 C         143.3594  131.0352  153.3336 C.ar    1  UNL1        0.0015
     30 C         144.3041  130.2711  154.2133 C.ar    1  UNL1        0.0171
     31 C         144.7385  130.8488  155.5277 C.ar    1  UNL1        0.0015
     32 C         144.2281  132.1908  155.9624 C.ar    1  UNL1        0.0000
     33 C         144.8144  128.9292  153.7785 C.ar    1  UNL1        0.0754
     34 C         144.3511  127.5998  154.2961 C.ar    1  UNL1        0.0409
     35 C         145.1280  126.5302  153.5873 C.ar    1  UNL1        0.1214
     36 N         146.0715  127.1986  152.6318 N.ar    1  UNL1       -0.1711
     37 N         145.8777  128.6813  152.7500 N.ar    1  UNL1       -0.2757
     38 H         146.3631  129.3707  152.2417 H       1  UNL1        0.1889
     39 C         140.0818  142.9337  161.7515 C.3     1  UNL1        0.1183
     40 C         139.6719  144.9070  163.9737 C.3     1  UNL1        0.0323
     41 C         141.0522  144.6453  163.4482 C.ar    1  UNL1       -0.0069
     42 C         142.2276  145.3702  164.0337 C.ar    1  UNL1       -0.0015
     43 C         143.6079  145.1086  163.5082 C.ar    1  UNL1        0.0203
     44 C         143.8129  144.1220  162.3971 C.ar    1  UNL1        0.0985
     45 N         142.6375  143.3970  161.8115 N.ar    1  UNL1       -0.2471
     46 C         141.2571  143.6586  162.3370 C.ar    1  UNL1        0.0712
@<TRIPOS>BOND
     1    40    41    1
     2    41    42   ar
     3    42    43   ar
     4    43    44   ar
     5    44    45   ar
     6    45    46   ar
     7    46    39    1
     8    39     1    1
     9     1     2    1
    10     2     3    1
    11     3     4    1
    12     4     5    1
    13     5     6    1
    14     4     7    1
    15     7     8    2
    16     7     9   am
    17     9    21    1
    18    21    22   ar
    19    22    23   ar
    20    23    24   ar
    21    24    27    1
    22    27    28   ar
    23    28    29   ar
    24    29    30   ar
    25    30    33    1
    26    33    34   ar
    27    34    35   ar
    28    35    36   ar
    29    36    37   ar
    30    30    31   ar
    31    31    32   ar
    32    24    25   ar
    33    25    26   ar
    34     9    10   am
    35    10    11    2
    36    10    12   am
    37    12    13    1
    38    13    14   ar
    39    14    15   ar
    40    15    16    1
    41    15    17   ar
    42    17    18   ar
    43    18    19   ar
    44    46    41   ar
    45     6     1    1
    46    26    21   ar
    47    19    13   ar
    48    12     4    1
    49    32    27   ar
    50    37    33   ar
    51    37    38    1
    52    16    20    1
@<TRIPOS>MOLECULE
*****
 46 52 0 0 0
SMALL
GASTEIGER

@<TRIPOS>ATOM
      1 N         140.0152  146.3995  154.8430 N.3     1  UNL1       -0.2676
      2 C         139.2409  145.1793  154.4413 C.3     1  UNL1        0.0746
      3 C         138.8959  144.1392  155.4656 C.3     1  UNL1        0.0449
      4 C         139.3252  144.3193  156.8915 C.3     1  UNL1        0.1391
      5 C         140.0995  145.5396  157.2931 C.3     1  UNL1        0.0449
      6 C         140.4445  146.5797  156.2689 C.3     1  UNL1        0.0746
      7 C         139.6847  144.3621  158.3472 C.2     1  UNL1        0.2529
      8 O         140.4522  145.4525  159.0342 O.2     1  UNL1       -0.2724
      9 N         139.1418  143.1229  158.9953 N.am    1  UNL1       -0.1907
     10 C         138.4468  142.3144  157.9401 C.2     1  UNL1        0.3219
     11 O         137.7593  140.9977  158.1485 O.2     1  UNL1       -0.2512
     12 N         138.5602  143.0538  156.6399 N.am    1  UNL1       -0.2222
     13 C         138.0059  142.6063  155.3199 C.ar    1  UNL1        0.1453
     14 C         138.8210  141.7194  154.4260 C.ar    1  UNL1        0.0922
     15 C         138.2667  141.2720  153.1060 C.ar    1  UNL1        0.2259
     16 O         139.0818  140.3851  152.2120 O.3     1  UNL1       -0.4919
     17 N         136.8972  141.7113  152.6798 N.ar    1  UNL1       -0.1894
     18 C         136.0821  142.5981  153.5737 C.ar    1  UNL1        0.2027
     19 N         136.6365  143.0456  154.8937 N.ar    1  UNL1       -0.2084
     20 H         139.9372  140.1107  152.4782 H       1  UNL1        0.2938
     21 C         139.2711  142.7567  160.4441 C.ar    1  UNL1        0.0622
     22 C         140.6034  142.3471  160.9981 C.ar    1  UNL1        0.0154
     23 C         140.7328  141.9809  162.4469 C.ar    1  UNL1        0.0013
     24 C         139.5298  142.0243  163.3418 C.ar    1  UNL1        0.0001
     25 C         138.1974  142.4339  162.7878 C.ar    1  UNL1        0.0013
     26 C         138.0681  142.8001  161.3389 C.ar    1  UNL1        0.0154
     27 C         139.6592  141.6580  164.7906 C.ar    1  UNL1        0.0000
     28 C         139.1183  140.3490  165.2845 C.ar    1  UNL1        0.0000
     29 C         139.2477  139.9828  166.7333 C.ar    1  UNL1        0.0015
     30 C         139.9179  140.9256  167.6883 C.ar    1  UNL1        0.0171
     31 C         140.4588  142.2347  167.1944 C.ar    1  UNL1        0.0015
     32 C         140.3294  142.6009  165.7455 C.ar    1  UNL1        0.0000
     33 C         140.0473  140.5594  169.1372 C.ar    1  UNL1        0.0754
     34 C         141.1578  140.9749  170.0558 C.ar    1  UNL1        0.0409
     35 C         140.8857  140.3857  171.4081 C.ar    1  UNL1        0.1214
     36 N         139.6069  139.6060  171.3252 N.ar    1  UNL1       -0.1711
     37 N         139.0887  139.7133  169.9216 N.ar    1  UNL1       -0.2757
     38 H         138.2643  139.3009  169.5760 H       1  UNL1        0.1889
     39 C         140.3602  147.4397  153.8187 C.3     1  UNL1        0.1183
     40 C         141.5870  149.5981  152.1346 C.3     1  UNL1        0.0323
     41 C         140.6052  149.9539  153.2114 C.ar    1  UNL1       -0.0069
     42 C         140.2368  151.3889  153.4461 C.ar    1  UNL1       -0.0015
     43 C         139.2550  151.7446  154.5230 C.ar    1  UNL1        0.0203
     44 C         138.6417  150.6655  155.3650 C.ar    1  UNL1        0.0985
     45 N         139.0100  149.2304  155.1303 N.ar    1  UNL1       -0.2471
     46 C         139.9918  148.8746  154.0535 C.ar    1  UNL1        0.0712
@<TRIPOS>BOND
     1    40    41    1
     2    41    42   ar
     3    42    43   ar
     4    43    44   ar
     5    44    45   ar
     6    45    46   ar
     7    46    39    1
     8    39     1    1
     9     1     2    1
    10     2     3    1
    11     3     4    1
    12     4     5    1
    13     5     6    1
    14     4     7    1
    15     7     8    2
    16     7     9   am
    17     9    21    1
    18    21    22   ar
    19    22    23   ar
    20    23    24   ar
    21    24    27    1
    22    27    28   ar
    23    28    29   ar
    24    29    30   ar
    25    30    33    1
    26    33    34   ar
    27    34    35   ar
    28    35    36   ar
    29    36    37   ar
    30    30    31   ar
    31    31    32   ar
    32    24    25   ar
    33    25    26   ar
    34     9    10   am
    35    10    11    2
    36    10    12   am
    37    12    13    1
    38    13    14   ar
    39    14    15   ar
    40    15    16    1
    41    15    17   ar
    42    17    18   ar
    43    18    19   ar
    44    46    41   ar
    45     6     1    1
    46    26    21   ar
    47    19    13   ar
    48    12     4    1
    49    32    27   ar
    50    37    33   ar
    51    37    38    1
    52    16    20    1
@<TRIPOS>MOLECULE
*****
 46 52 0 0 0
SMALL
GASTEIGER

@<TRIPOS>ATOM
      1 N         143.0962  137.3829  156.8878 N.3     1  UNL1       -0.2676
      2 C         142.4604  137.5561  158.2352 C.3     1  UNL1        0.0746
      3 C         141.8015  138.8555  158.5921 C.3     1  UNL1        0.0449
      4 C         141.7782  139.9816  157.6016 C.3     1  UNL1        0.1391
      5 C         142.4140  139.8084  156.2541 C.3     1  UNL1        0.0449
      6 C         143.0730  138.5091  155.8972 C.3     1  UNL1        0.0746
      7 C         141.6770  141.1905  156.7193 C.2     1  UNL1        0.2529
      8 O         142.2170  141.3122  155.3252 O.2     1  UNL1       -0.2724
      9 N         140.9409  142.2563  157.4759 N.am    1  UNL1       -0.1907
     10 C         140.5873  141.7061  158.8258 C.2     1  UNL1        0.3219
     11 O         139.8463  142.4338  159.9080 O.2     1  UNL1       -0.2512
     12 N         141.1047  140.3003  158.9035 N.am    1  UNL1       -0.2222
     13 C         140.9721  139.3755  160.0770 C.ar    1  UNL1        0.1453
     14 C         139.6272  138.8265  160.4510 C.ar    1  UNL1        0.0922
     15 C         139.4946  137.9017  161.6245 C.ar    1  UNL1        0.2259
     16 O         138.1497  137.3527  161.9985 O.3     1  UNL1       -0.4919
     17 N         140.7069  137.5258  162.4241 N.ar    1  UNL1       -0.1894
     18 C         142.0517  138.0748  162.0500 C.ar    1  UNL1        0.2027
     19 N         142.1843  138.9996  160.8765 N.ar    1  UNL1       -0.2084
     20 H         137.3925  137.5874  161.4991 H       1  UNL1        0.2938
     21 C         140.6157  143.6309  156.9712 C.ar    1  UNL1        0.0622
     22 C         139.3114  143.8852  156.2756 C.ar    1  UNL1        0.0154
     23 C         138.9861  145.2598  155.7710 C.ar    1  UNL1        0.0013
     24 C         139.9652  146.3800  155.9619 C.ar    1  UNL1        0.0001
     25 C         141.2696  146.1256  156.6575 C.ar    1  UNL1        0.0013
     26 C         141.5948  144.7510  157.1622 C.ar    1  UNL1        0.0154
     27 C         139.6399  147.7546  155.4572 C.ar    1  UNL1        0.0000
     28 C         138.7832  148.6719  156.2786 C.ar    1  UNL1        0.0000
     29 C         138.4579  150.0464  155.7739 C.ar    1  UNL1        0.0015
     30 C         138.9894  150.5038  154.4478 C.ar    1  UNL1        0.0171
     31 C         139.8461  149.5865  153.6264 C.ar    1  UNL1        0.0015
     32 C         140.1714  148.2119  154.1311 C.ar    1  UNL1        0.0000
     33 C         138.6641  151.8784  153.9431 C.ar    1  UNL1        0.0754
     34 C         138.4631  153.1025  154.7863 C.ar    1  UNL1        0.0409
     35 C         138.1575  154.2508  153.8710 C.ar    1  UNL1        0.1214
     36 N         138.1697  153.7364  152.4620 N.ar    1  UNL1       -0.1711
     37 N         138.4828  152.2701  152.5066 N.ar    1  UNL1       -0.2757
     38 H         138.5564  151.6702  151.7295 H       1  UNL1        0.1889
     39 C         143.7552  136.0835  156.5308 C.3     1  UNL1        0.1183
     40 C         144.0498  133.3481  157.7268 C.3     1  UNL1        0.0323
     41 C         143.0793  133.5760  156.6060 C.ar    1  UNL1       -0.0069
     42 C         142.2561  132.4363  156.0833 C.ar    1  UNL1       -0.0015
     43 C         141.2855  132.6643  154.9625 C.ar    1  UNL1        0.0203
     44 C         141.1382  134.0320  154.3645 C.ar    1  UNL1        0.0985
     45 N         141.9615  135.1718  154.8873 N.ar    1  UNL1       -0.2471
     46 C         142.9320  134.9438  156.0080 C.ar    1  UNL1        0.0712
@<TRIPOS>BOND
     1    40    41    1
     2    41    42   ar
     3    42    43   ar
     4    43    44   ar
     5    44    45   ar
     6    45    46   ar
     7    46    39    1
     8    39     1    1
     9     1     2    1
    10     2     3    1
    11     3     4    1
    12     4     5    1
    13     5     6    1
    14     4     7    1
    15     7     8    2
    16     7     9   am
    17     9    21    1
    18    21    22   ar
    19    22    23   ar
    20    23    24   ar
    21    24    27    1
    22    27    28   ar
    23    28    29   ar
    24    29    30   ar
    25    30    33    1
    26    33    34   ar
    27    34    35   ar
    28    35    36   ar
    29    36    37   ar
    30    30    31   ar
    31    31    32   ar
    32    24    25   ar
    33    25    26   ar
    34     9    10   am
    35    10    11    2
    36    10    12   am
    37    12    13    1
    38    13    14   ar
    39    14    15   ar
    40    15    16    1
    41    15    17   ar
    42    17    18   ar
    43    18    19   ar
    44    46    41   ar
    45     6     1    1
    46    26    21   ar
    47    19    13   ar
    48    12     4    1
    49    32    27   ar
    50    37    33   ar
    51    37    38    1
    52    16    20    1
@<TRIPOS>MOLECULE
*****
 46 52 0 0 0
SMALL
GASTEIGER

@<TRIPOS>ATOM
      1 N         140.5661  137.2201  155.6763 N.3     1  UNL1       -0.2676
      2 C         140.5492  137.4720  157.1548 C.3     1  UNL1        0.0746
      3 C         140.4000  138.8706  157.6757 C.3     1  UNL1        0.0449
      4 C         140.2677  140.0175  156.7180 C.3     1  UNL1        0.1391
      5 C         140.2846  139.7657  155.2395 C.3     1  UNL1        0.0449
      6 C         140.4338  138.3670  154.7186 C.3     1  UNL1        0.0746
      7 C         140.1262  141.2577  155.8863 C.2     1  UNL1        0.2529
      8 O         140.1089  141.3170  154.3875 O.2     1  UNL1       -0.2724
      9 N         140.0049  142.4284  156.8164 N.am    1  UNL1       -0.1907
     10 C         140.0715  141.9116  158.2230 C.2     1  UNL1        0.3219
     11 O         139.9900  142.7394  159.4712 O.2     1  UNL1       -0.2512
     12 N         140.2339  140.4216  158.1623 N.am    1  UNL1       -0.2222
     13 C         140.3434  139.4979  159.3390 C.ar    1  UNL1        0.1453
     14 C         139.1027  138.9920  160.0133 C.ar    1  UNL1        0.0922
     15 C         139.2122  138.0683  161.1901 C.ar    1  UNL1        0.2259
     16 O         137.9716  137.5624  161.8644 O.3     1  UNL1       -0.4919
     17 N         140.5624  137.6504  161.6925 N.ar    1  UNL1       -0.1894
     18 C         141.8031  138.1563  161.0182 C.ar    1  UNL1        0.2027
     19 N         141.6936  139.0801  159.8414 N.ar    1  UNL1       -0.2084
     20 H         137.1281  137.8234  161.5506 H       1  UNL1        0.2938
     21 C         139.8451  143.8637  156.4111 C.ar    1  UNL1        0.0622
     22 C         138.6194  144.3002  155.6648 C.ar    1  UNL1        0.0154
     23 C         138.4596  145.7355  155.2595 C.ar    1  UNL1        0.0013
     24 C         139.5254  146.7343  155.6004 C.ar    1  UNL1        0.0001
     25 C         140.7512  146.2977  156.3467 C.ar    1  UNL1        0.0013
     26 C         140.9110  144.8624  156.7520 C.ar    1  UNL1        0.0154
     27 C         139.3656  148.1696  155.1950 C.ar    1  UNL1        0.0000
     28 C         138.6242  149.1223  156.0854 C.ar    1  UNL1        0.0000
     29 C         138.4644  150.5576  155.6801 C.ar    1  UNL1        0.0015
     30 C         139.0459  151.0403  154.3843 C.ar    1  UNL1        0.0171
     31 C         139.7873  150.0876  153.4939 C.ar    1  UNL1        0.0015
     32 C         139.9471  148.6522  153.8993 C.ar    1  UNL1        0.0000
     33 C         138.8861  152.4756  153.9790 C.ar    1  UNL1        0.0754
     34 C         139.8364  153.2617  153.1252 C.ar    1  UNL1        0.0409
     35 C         139.2855  154.6487  152.9748 C.ar    1  UNL1        0.1214
     36 N         137.9948  154.7199  153.7357 N.ar    1  UNL1       -0.1711
     37 N         137.7479  153.3768  154.3563 N.ar    1  UNL1       -0.2757
     38 H         136.9747  153.1300  154.9135 H       1  UNL1        0.1889
     39 C         140.7153  135.8214  155.1553 C.3     1  UNL1        0.1183
     40 C         141.4875  133.3670  153.6127 C.3     1  UNL1        0.0323
     41 C         142.2315  133.7320  154.8630 C.ar    1  UNL1       -0.0069
     42 C         143.3615  132.8698  155.3420 C.ar    1  UNL1       -0.0015
     43 C         144.1055  133.2347  156.5923 C.ar    1  UNL1        0.0203
     44 C         143.7194  134.4619  157.3636 C.ar    1  UNL1        0.0985
     45 N         142.5893  135.3242  156.8846 N.ar    1  UNL1       -0.2471
     46 C         141.8453  134.9592  155.6343 C.ar    1  UNL1        0.0712
@<TRIPOS>BOND
     1    40    41    1
     2    41    42   ar
     3    42    43   ar
     4    43    44   ar
     5    44    45   ar
     6    45    46   ar
     7    46    39    1
     8    39     1    1
     9     1     2    1
    10     2     3    1
    11     3     4    1
    12     4     5    1
    13     5     6    1
    14     4     7    1
    15     7     8    2
    16     7     9   am
    17     9    21    1
    18    21    22   ar
    19    22    23   ar
    20    23    24   ar
    21    24    27    1
    22    27    28   ar
    23    28    29   ar
    24    29    30   ar
    25    30    33    1
    26    33    34   ar
    27    34    35   ar
    28    35    36   ar
    29    36    37   ar
    30    30    31   ar
    31    31    32   ar
    32    24    25   ar
    33    25    26   ar
    34     9    10   am
    35    10    11    2
    36    10    12   am
    37    12    13    1
    38    13    14   ar
    39    14    15   ar
    40    15    16    1
    41    15    17   ar
    42    17    18   ar
    43    18    19   ar
    44    46    41   ar
    45     6     1    1
    46    26    21   ar
    47    19    13   ar
    48    12     4    1
    49    32    27   ar
    50    37    33   ar
    51    37    38    1
    52    16    20    1
@<TRIPOS>MOLECULE
*****
 46 52 0 0 0
SMALL
GASTEIGER

@<TRIPOS>ATOM
      1 N         140.0261  142.4352  159.3252 N.3     1  UNL1       -0.2676
      2 C         139.1353  142.4313  158.1183 C.3     1  UNL1        0.0746
      3 C         139.1787  141.2800  157.1579 C.3     1  UNL1        0.0449
      4 C         140.1128  140.1325  157.4043 C.3     1  UNL1        0.1391
      5 C         141.0036  140.1364  158.6111 C.3     1  UNL1        0.0449
      6 C         140.9602  141.2878  159.5716 C.3     1  UNL1        0.0746
      7 C         140.9907  138.9216  157.5186 C.2     1  UNL1        0.2529
      8 O         141.9794  138.6495  158.6133 O.2     1  UNL1       -0.2724
      9 N         140.7064  138.0306  156.3458 N.am    1  UNL1       -0.1907
     10 C         139.6527  138.6908  155.5067 C.2     1  UNL1        0.3219
     11 O         139.0685  138.1475  154.2366 O.2     1  UNL1       -0.2512
     12 N         139.2859  139.9899  156.1609 N.am    1  UNL1       -0.2222
     13 C         138.2705  140.9736  155.6598 C.ar    1  UNL1        0.1453
     14 C         136.8146  140.7643  155.9540 C.ar    1  UNL1        0.0922
     15 C         135.7992  141.7481  155.4528 C.ar    1  UNL1        0.2259
     16 O         134.3433  141.5388  155.7470 O.3     1  UNL1       -0.4919
     17 N         136.2397  142.9412  154.6574 N.ar    1  UNL1       -0.1894
     18 C         137.6956  143.1505  154.3632 C.ar    1  UNL1        0.2027
     19 N         138.7109  142.1667  154.8644 N.ar    1  UNL1       -0.2084
     20 H         134.0681  140.7936  156.2439 H       1  UNL1        0.2938
     21 C         141.3608  136.7110  156.0619 C.ar    1  UNL1        0.0622
     22 C         140.7403  135.7621  155.0800 C.ar    1  UNL1        0.0154
     23 C         141.3947  134.4425  154.7961 C.ar    1  UNL1        0.0013
     24 C         142.6695  134.0720  155.4942 C.ar    1  UNL1        0.0001
     25 C         143.2900  135.0210  156.4762 C.ar    1  UNL1        0.0013
     26 C         142.6356  136.3406  156.7601 C.ar    1  UNL1        0.0154
     27 C         143.3239  132.7525  155.2104 C.ar    1  UNL1        0.0000
     28 C         144.2579  132.1468  156.2158 C.ar    1  UNL1        0.0000
     29 C         144.9123  130.8272  155.9320 C.ar    1  UNL1        0.0015
     30 C         144.6327  130.1133  154.6426 C.ar    1  UNL1        0.0171
     31 C         143.6988  130.7190  153.6372 C.ar    1  UNL1        0.0015
     32 C         143.0443  132.0386  153.9211 C.ar    1  UNL1        0.0000
     33 C         145.2871  128.7938  154.3588 C.ar    1  UNL1        0.0754
     34 C         145.4130  127.6477  155.3181 C.ar    1  UNL1        0.0409
     35 C         146.1342  126.5343  154.6180 C.ar    1  UNL1        0.1214
     36 N         146.4540  126.9923  153.2259 N.ar    1  UNL1       -0.1711
     37 N         145.9304  128.3888  153.0657 N.ar    1  UNL1       -0.2757
     38 H         145.9973  128.9424  152.2543 H       1  UNL1        0.1889
     39 C         139.9827  143.5866  160.2857 C.3     1  UNL1        0.1183
     40 C         139.9848  145.8457  162.2597 C.3     1  UNL1        0.0323
     41 C         139.1780  144.6111  162.5335 C.ar    1  UNL1       -0.0069
     42 C         138.3722  144.5061  163.7943 C.ar    1  UNL1       -0.0015
     43 C         137.5654  143.2716  164.0682 C.ar    1  UNL1        0.0203
     44 C         137.5644  142.1421  163.0812 C.ar    1  UNL1        0.0985
     45 N         138.3702  142.2471  161.8203 N.ar    1  UNL1       -0.2471
     46 C         139.1770  143.4816  161.5465 C.ar    1  UNL1        0.0712
@<TRIPOS>BOND
     1    40    41    1
     2    41    42   ar
     3    42    43   ar
     4    43    44   ar
     5    44    45   ar
     6    45    46   ar
     7    46    39    1
     8    39     1    1
     9     1     2    1
    10     2     3    1
    11     3     4    1
    12     4     5    1
    13     5     6    1
    14     4     7    1
    15     7     8    2
    16     7     9   am
    17     9    21    1
    18    21    22   ar
    19    22    23   ar
    20    23    24   ar
    21    24    27    1
    22    27    28   ar
    23    28    29   ar
    24    29    30   ar
    25    30    33    1
    26    33    34   ar
    27    34    35   ar
    28    35    36   ar
    29    36    37   ar
    30    30    31   ar
    31    31    32   ar
    32    24    25   ar
    33    25    26   ar
    34     9    10   am
    35    10    11    2
    36    10    12   am
    37    12    13    1
    38    13    14   ar
    39    14    15   ar
    40    15    16    1
    41    15    17   ar
    42    17    18   ar
    43    18    19   ar
    44    46    41   ar
    45     6     1    1
    46    26    21   ar
    47    19    13   ar
    48    12     4    1
    49    32    27   ar
    50    37    33   ar
    51    37    38    1
    52    16    20    1
