@<TRIPOS>MOLECULE
*****
 34 38 0 0 0
SMALL
GASTEIGER

@<TRIPOS>ATOM
      1 C         138.9513  139.0581  165.4340 C.ar    1  UNL1        0.0206
      2 C         139.6500  137.8147  164.9694 C.ar    1  UNL1        0.0013
      3 C         139.8109  137.5487  163.5019 C.ar    1  UNL1       -0.0045
      4 C         139.2731  138.5261  162.4991 C.ar    1  UNL1       -0.0247
      5 C         138.5745  139.7694  162.9638 C.ar    1  UNL1       -0.0246
      6 C         138.4136  140.0354  164.4312 C.ar    1  UNL1       -0.0029
      7 C         137.9688  140.8658  162.1384 C.3     1  UNL1        0.0433
      8 C         137.9122  140.9895  160.6446 C.3     1  UNL1        0.0768
      9 N         138.4472  140.0475  159.6072 N.3     1  UNL1       -0.2720
     10 C         139.1711  138.7490  159.8074 C.3     1  UNL1        0.0768
     11 C         139.5387  138.0719  161.0944 C.3     1  UNL1        0.0433
     12 C         139.7120  140.9345  170.3106 C.3     1  UNL1        0.0754
     13 C         139.1401  140.1865  169.1430 C.ar    1  UNL1        0.1548
     14 C         139.6623  140.2138  167.7370 C.ar    1  UNL1        0.0580
     15 C         138.7905  139.3240  166.9014 C.ar    1  UNL1        0.1227
     16 N         137.7294  138.7469  167.7909 N.ar    1  UNL1       -0.0774
     17 O         137.9455  139.2799  169.1762 O.2     1  UNL1       -0.3578
     18 C         138.2296  140.4582  158.1811 C.3     1  UNL1        0.0730
     19 C         139.3966  140.8670  157.3318 C.3     1  UNL1        0.0294
     20 C         139.8296  142.3026  157.2930 C.3     1  UNL1        0.0666
     21 S         141.0613  142.7347  158.0319 S.3     1  UNL1       -0.0756
     22 C         141.1285  142.5953  159.5239 C.ar    1  UNL1        0.1930
     23 N         140.5547  143.5531  160.5256 N.ar    1  UNL1       -0.1224
     24 N         140.8528  143.0235  161.8970 N.ar    1  UNL1       -0.1328
     25 C         141.6108  141.7383  161.7428 C.ar    1  UNL1        0.1432
     26 N         141.7812  141.4737  160.2762 N.ar    1  UNL1       -0.2918
     27 C         142.4814  140.2945  159.6685 C.3     1  UNL1        0.1337
     28 C         142.1107  140.8701  162.8592 C.3     1  UNL1        0.0588
     29 C         142.8291  139.5902  162.5500 C.3     1  UNL1        0.0075
     30 C         143.3289  138.7220  163.6664 C.3     1  UNL1        0.0004
     31 C         143.1105  139.1338  165.0921 C.3     1  UNL1        0.0000
     32 C         143.6104  138.2656  166.2085 C.3     1  UNL1        0.0000
     33 C         142.3922  140.4138  165.4014 C.3     1  UNL1        0.0004
     34 C         141.8923  141.2819  164.2849 C.3     1  UNL1        0.0075
@<TRIPOS>BOND
     1    12    13    1
     2    13    14   ar
     3    14    15   ar
     4    15     1    1
     5     1     2   ar
     6     2     3   ar
     7     3     4   ar
     8     4     5   ar
     9     5     6   ar
    10     5     7    1
    11     7     8    1
    12     8     9    1
    13     9    18    1
    14    18    19    1
    15    19    20    1
    16    20    21    1
    17    21    22    1
    18    22    23   ar
    19    23    24   ar
    20    24    25   ar
    21    25    28    1
    22    28    29    1
    23    29    30    1
    24    30    31    1
    25    31    32    1
    26    31    33    1
    27    33    34    1
    28    25    26   ar
    29    26    27    1
    30     9    10    1
    31    10    11    1
    32    15    16   ar
    33    16    17   ar
    34    17    13   ar
    35     6     1   ar
    36    26    22   ar
    37    11     4    1
    38    34    28    1
@<TRIPOS>MOLECULE
*****
 34 38 0 0 0
SMALL
GASTEIGER

@<TRIPOS>ATOM
      1 C         139.1702  140.1330  166.7579 C.ar    1  UNL1        0.0206
      2 C         138.7073  138.8225  166.1937 C.ar    1  UNL1        0.0013
      3 C         138.3983  138.7030  164.7307 C.ar    1  UNL1       -0.0045
      4 C         138.5524  139.8941  163.8319 C.ar    1  UNL1       -0.0247
      5 C         139.0152  141.2044  164.3961 C.ar    1  UNL1       -0.0246
      6 C         139.3242  141.3240  165.8591 C.ar    1  UNL1       -0.0029
      7 C         139.2339  142.5053  163.6818 C.3     1  UNL1        0.0433
      8 C         139.0437  142.8167  162.2268 C.3     1  UNL1        0.0768
      9 N         138.5878  141.9044  161.1270 N.3     1  UNL1       -0.2720
     10 C         138.2096  140.4553  161.2103 C.3     1  UNL1        0.0768
     11 C         138.1938  139.5606  162.4141 C.3     1  UNL1        0.0433
     12 C         141.5203  141.4311  171.3046 C.3     1  UNL1        0.0754
     13 C         140.5593  140.8491  170.3108 C.ar    1  UNL1        0.1548
     14 C         140.6395  140.9908  168.8196 C.ar    1  UNL1        0.0580
     15 C         139.4791  140.2525  168.2209 C.ar    1  UNL1        0.1227
     16 N         138.6818  139.6545  169.3420 N.ar    1  UNL1       -0.0774
     17 O         139.3494  140.0233  170.6336 O.2     1  UNL1       -0.3578
     18 C         138.4984  142.5231  159.7634 C.3     1  UNL1        0.0730
     19 C         138.8534  141.7169  158.5493 C.3     1  UNL1        0.0294
     20 C         140.1072  142.0240  157.7853 C.3     1  UNL1        0.0666
     21 S         141.3726  141.2785  158.0897 S.3     1  UNL1       -0.0756
     22 C         141.4234  140.3299  159.2506 C.ar    1  UNL1        0.1930
     23 N         141.0735  138.8718  159.2137 N.ar    1  UNL1       -0.1224
     24 N         141.2669  138.3136  160.5924 N.ar    1  UNL1       -0.1328
     25 C         141.7363  139.4268  161.4815 C.ar    1  UNL1        0.1432
     26 N         141.8331  140.6730  160.6522 N.ar    1  UNL1       -0.2918
     27 C         142.2638  142.0248  161.1391 C.3     1  UNL1        0.1337
     28 C         142.0533  139.3137  162.9432 C.3     1  UNL1        0.0588
     29 C         141.8308  138.0153  163.6607 C.3     1  UNL1        0.0075
     30 C         142.1478  137.9022  165.1224 C.3     1  UNL1        0.0004
     31 C         142.6874  139.0874  165.8668 C.3     1  UNL1        0.0000
     32 C         143.0044  138.9743  167.3285 C.3     1  UNL1        0.0000
     33 C         142.9099  140.3857  165.1493 C.3     1  UNL1        0.0004
     34 C         142.5929  140.4989  163.6876 C.3     1  UNL1        0.0075
@<TRIPOS>BOND
     1    12    13    1
     2    13    14   ar
     3    14    15   ar
     4    15     1    1
     5     1     2   ar
     6     2     3   ar
     7     3     4   ar
     8     4     5   ar
     9     5     6   ar
    10     5     7    1
    11     7     8    1
    12     8     9    1
    13     9    18    1
    14    18    19    1
    15    19    20    1
    16    20    21    1
    17    21    22    1
    18    22    23   ar
    19    23    24   ar
    20    24    25   ar
    21    25    28    1
    22    28    29    1
    23    29    30    1
    24    30    31    1
    25    31    32    1
    26    31    33    1
    27    33    34    1
    28    25    26   ar
    29    26    27    1
    30     9    10    1
    31    10    11    1
    32    15    16   ar
    33    16    17   ar
    34    17    13   ar
    35     6     1   ar
    36    26    22   ar
    37    11     4    1
    38    34    28    1
@<TRIPOS>MOLECULE
*****
 34 38 0 0 0
SMALL
GASTEIGER

@<TRIPOS>ATOM
      1 C         139.3114  140.0004  166.4654 C.ar    1  UNL1        0.0206
      2 C         139.3196  138.6309  165.8535 C.ar    1  UNL1        0.0013
      3 C         139.2146  138.4737  164.3654 C.ar    1  UNL1       -0.0045
      4 C         139.1015  139.6861  163.4893 C.ar    1  UNL1       -0.0247
      5 C         139.0934  141.0554  164.1013 C.ar    1  UNL1       -0.0246
      6 C         139.1983  141.2127  165.5893 C.ar    1  UNL1       -0.0029
      7 C         138.9899  142.3856  163.4157 C.3     1  UNL1        0.0433
      8 C         138.8690  142.6748  161.9487 C.3     1  UNL1        0.0768
      9 N         138.8217  141.7053  160.8053 N.3     1  UNL1       -0.2720
     10 C         138.8837  140.2071  160.8461 C.3     1  UNL1        0.0768
     11 C         139.0082  139.3084  162.0406 C.3     1  UNL1        0.0433
     12 C         140.9744  141.4771  171.2544 C.3     1  UNL1        0.0754
     13 C         140.1808  140.8362  170.1548 C.ar    1  UNL1        0.1548
     14 C         140.4537  140.9570  168.6847 C.ar    1  UNL1        0.0580
     15 C         139.4164  140.1575  167.9535 C.ar    1  UNL1        0.1227
     16 N         138.5024  139.5426  168.9716 N.ar    1  UNL1       -0.0774
     17 O         138.9748  139.9621  170.3320 O.2     1  UNL1       -0.3578
     18 C         138.6958  142.3144  159.4403 C.3     1  UNL1        0.0730
     19 C         139.5206  143.5130  159.0748 C.3     1  UNL1        0.0294
     20 C         140.7267  143.3542  158.1973 C.3     1  UNL1        0.0666
     21 S         142.1018  143.4861  158.7816 S.3     1  UNL1       -0.0756
     22 C         142.2962  143.4090  160.2670 C.ar    1  UNL1        0.1930
     23 N         142.4397  144.5755  161.1991 N.ar    1  UNL1       -0.1224
     24 N         142.6133  144.0395  162.5892 N.ar    1  UNL1       -0.1328
     25 C         142.5771  142.5417  162.5163 C.ar    1  UNL1        0.1432
     26 N         142.3811  142.1520  161.0811 N.ar    1  UNL1       -0.2918
     27 C         142.2866  140.7513  160.5528 C.3     1  UNL1        0.1337
     28 C         142.7130  141.5990  163.6751 C.3     1  UNL1        0.0588
     29 C         142.8103  142.1368  165.0720 C.3     1  UNL1        0.0075
     30 C         142.9462  141.1941  166.2308 C.3     1  UNL1        0.0004
     31 C         142.9848  139.7136  165.9928 C.3     1  UNL1        0.0000
     32 C         143.1207  138.7709  167.1516 C.3     1  UNL1        0.0000
     33 C         142.8875  139.1758  164.5959 C.3     1  UNL1        0.0004
     34 C         142.7516  140.1185  163.4371 C.3     1  UNL1        0.0075
@<TRIPOS>BOND
     1    12    13    1
     2    13    14   ar
     3    14    15   ar
     4    15     1    1
     5     1     2   ar
     6     2     3   ar
     7     3     4   ar
     8     4     5   ar
     9     5     6   ar
    10     5     7    1
    11     7     8    1
    12     8     9    1
    13     9    18    1
    14    18    19    1
    15    19    20    1
    16    20    21    1
    17    21    22    1
    18    22    23   ar
    19    23    24   ar
    20    24    25   ar
    21    25    28    1
    22    28    29    1
    23    29    30    1
    24    30    31    1
    25    31    32    1
    26    31    33    1
    27    33    34    1
    28    25    26   ar
    29    26    27    1
    30     9    10    1
    31    10    11    1
    32    15    16   ar
    33    16    17   ar
    34    17    13   ar
    35     6     1   ar
    36    26    22   ar
    37    11     4    1
    38    34    28    1
@<TRIPOS>MOLECULE
*****
 34 38 0 0 0
SMALL
GASTEIGER

@<TRIPOS>ATOM
      1 C         141.4456  142.5258  166.5309 C.ar    1  UNL1        0.0206
      2 C         140.0592  143.0823  166.6657 C.ar    1  UNL1        0.0013
      3 C         139.4300  143.8146  165.5177 C.ar    1  UNL1       -0.0045
      4 C         140.1873  143.9904  164.2348 C.ar    1  UNL1       -0.0247
      5 C         141.5736  143.4339  164.1000 C.ar    1  UNL1       -0.0246
      6 C         142.2029  142.7016  165.2480 C.ar    1  UNL1       -0.0029
      7 C         142.4959  143.4967  162.9187 C.3     1  UNL1        0.0433
      8 C         142.2595  144.1317  161.5803 C.3     1  UNL1        0.0768
      9 N         141.0425  144.8605  161.0930 N.3     1  UNL1       -0.2720
     10 C         139.7613  145.1345  161.8233 C.3     1  UNL1        0.0768
     11 C         139.3807  144.7472  163.2216 C.3     1  UNL1        0.0433
     12 C         142.5961  138.7862  170.0766 C.3     1  UNL1        0.0754
     13 C         142.6036  140.0747  169.3087 C.ar    1  UNL1        0.1548
     14 C         141.7336  140.4050  168.1322 C.ar    1  UNL1        0.0580
     15 C         142.0748  141.7936  167.6789 C.ar    1  UNL1        0.1227
     16 N         143.1555  142.3214  168.5752 N.ar    1  UNL1       -0.0774
     17 O         143.4823  141.2591  169.5825 O.2     1  UNL1       -0.3578
     18 C         141.1164  145.3848  159.6895 C.3     1  UNL1        0.0730
     19 C         140.3171  144.7309  158.6015 C.3     1  UNL1        0.0294
     20 C         140.8762  143.5485  157.8672 C.3     1  UNL1        0.0666
     21 S         140.3627  142.1706  158.1629 S.3     1  UNL1       -0.0756
     22 C         140.7018  141.5073  159.4649 C.ar    1  UNL1        0.1930
     23 N         142.0198  140.8860  159.8209 N.ar    1  UNL1       -0.1224
     24 N         141.9150  140.3435  161.2154 N.ar    1  UNL1       -0.1328
     25 C         140.5321  140.6296  161.7213 C.ar    1  UNL1        0.1432
     26 N         139.7823  141.3488  160.6394 N.ar    1  UNL1       -0.2918
     27 C         138.3624  141.8258  160.7182 C.3     1  UNL1        0.1337
     28 C         139.9936  140.2611  163.0719 C.3     1  UNL1        0.0588
     29 C         138.6569  140.7790  163.5132 C.3     1  UNL1        0.0075
     30 C         138.1184  140.4105  164.8639 C.3     1  UNL1        0.0004
     31 C         138.9166  139.5241  165.7733 C.3     1  UNL1        0.0000
     32 C         138.3781  139.1556  167.1239 C.3     1  UNL1        0.0000
     33 C         140.2533  139.0062  165.3320 C.3     1  UNL1        0.0004
     34 C         140.7919  139.3747  163.9813 C.3     1  UNL1        0.0075
@<TRIPOS>BOND
     1    12    13    1
     2    13    14   ar
     3    14    15   ar
     4    15     1    1
     5     1     2   ar
     6     2     3   ar
     7     3     4   ar
     8     4     5   ar
     9     5     6   ar
    10     5     7    1
    11     7     8    1
    12     8     9    1
    13     9    18    1
    14    18    19    1
    15    19    20    1
    16    20    21    1
    17    21    22    1
    18    22    23   ar
    19    23    24   ar
    20    24    25   ar
    21    25    28    1
    22    28    29    1
    23    29    30    1
    24    30    31    1
    25    31    32    1
    26    31    33    1
    27    33    34    1
    28    25    26   ar
    29    26    27    1
    30     9    10    1
    31    10    11    1
    32    15    16   ar
    33    16    17   ar
    34    17    13   ar
    35     6     1   ar
    36    26    22   ar
    37    11     4    1
    38    34    28    1
@<TRIPOS>MOLECULE
*****
 34 38 0 0 0
SMALL
GASTEIGER

@<TRIPOS>ATOM
      1 C         141.9128  140.4030  166.7080 C.ar    1  UNL1        0.0206
      2 C         142.3580  139.0096  166.3759 C.ar    1  UNL1        0.0013
      3 C         142.9639  138.7151  165.0357 C.ar    1  UNL1       -0.0045
      4 C         143.1246  139.8141  164.0275 C.ar    1  UNL1       -0.0247
      5 C         142.6795  141.2074  164.3595 C.ar    1  UNL1       -0.0246
      6 C         142.0736  141.5019  165.6997 C.ar    1  UNL1       -0.0029
      7 C         142.7479  142.4394  163.5065 C.3     1  UNL1        0.0433
      8 C         143.2785  142.5822  162.1107 C.3     1  UNL1        0.0768
      9 N         143.8716  141.5283  161.2234 N.3     1  UNL1       -0.2720
     10 C         144.0807  140.0713  161.5125 C.3     1  UNL1        0.0768
     11 C         143.7483  139.3084  162.7604 C.3     1  UNL1        0.0433
     12 C         139.6259  142.9334  170.7387 C.3     1  UNL1        0.0754
     13 C         140.2557  141.8605  169.9010 C.ar    1  UNL1        0.1548
     14 C         140.7586  142.0195  168.4966 C.ar    1  UNL1        0.0580
     15 C         141.3069  140.6974  168.0482 C.ar    1  UNL1        0.1227
     16 N         141.1430  139.7212  169.1752 N.ar    1  UNL1       -0.0774
     17 O         140.4934  140.4400  170.3203 O.2     1  UNL1       -0.3578
     18 C         144.3142  141.9928  159.8675 C.3     1  UNL1        0.0730
     19 C         143.5255  141.6119  158.6497 C.3     1  UNL1        0.0294
     20 C         142.1048  142.0702  158.5026 C.3     1  UNL1        0.0666
     21 S         140.9925  141.0647  158.4654 S.3     1  UNL1       -0.0756
     22 C         140.7768  140.1414  159.6277 C.ar    1  UNL1        0.1930
     23 N         141.1692  138.6950  159.6894 N.ar    1  UNL1       -0.1224
     24 N         140.7657  138.1621  161.0323 N.ar    1  UNL1       -0.1328
     25 C         140.1240  139.2792  161.8005 C.ar    1  UNL1        0.1432
     26 N         140.1308  140.5025  160.9324 N.ar    1  UNL1       -0.2918
     27 C         139.5871  141.8503  161.3040 C.3     1  UNL1        0.1337
     28 C         139.5723  139.1889  163.1924 C.3     1  UNL1        0.0588
     29 C         139.0965  140.4273  163.8924 C.3     1  UNL1        0.0075
     30 C         138.5448  140.3370  165.2843 C.3     1  UNL1        0.0004
     31 C         138.4688  139.0083  165.9763 C.3     1  UNL1        0.0000
     32 C         137.9171  138.9180  167.3683 C.3     1  UNL1        0.0000
     33 C         138.9446  137.7699  165.2763 C.3     1  UNL1        0.0004
     34 C         139.4963  137.8603  163.8844 C.3     1  UNL1        0.0075
@<TRIPOS>BOND
     1    12    13    1
     2    13    14   ar
     3    14    15   ar
     4    15     1    1
     5     1     2   ar
     6     2     3   ar
     7     3     4   ar
     8     4     5   ar
     9     5     6   ar
    10     5     7    1
    11     7     8    1
    12     8     9    1
    13     9    18    1
    14    18    19    1
    15    19    20    1
    16    20    21    1
    17    21    22    1
    18    22    23   ar
    19    23    24   ar
    20    24    25   ar
    21    25    28    1
    22    28    29    1
    23    29    30    1
    24    30    31    1
    25    31    32    1
    26    31    33    1
    27    33    34    1
    28    25    26   ar
    29    26    27    1
    30     9    10    1
    31    10    11    1
    32    15    16   ar
    33    16    17   ar
    34    17    13   ar
    35     6     1   ar
    36    26    22   ar
    37    11     4    1
    38    34    28    1
@<TRIPOS>MOLECULE
*****
 34 38 0 0 0
SMALL
GASTEIGER

@<TRIPOS>ATOM
      1 C         142.6328  139.6540  166.3674 C.ar    1  UNL1        0.0206
      2 C         142.2426  138.4585  165.5497 C.ar    1  UNL1        0.0013
      3 C         142.4456  138.4677  164.0635 C.ar    1  UNL1       -0.0045
      4 C         143.0390  139.6724  163.3951 C.ar    1  UNL1       -0.0247
      5 C         143.4292  140.8678  164.2128 C.ar    1  UNL1       -0.0246
      6 C         143.2261  140.8586  165.6989 C.ar    1  UNL1       -0.0029
      7 C         144.0320  142.1611  163.7501 C.3     1  UNL1        0.0433
      8 C         144.3934  142.5783  162.3553 C.3     1  UNL1        0.0768
      9 N         144.2413  141.8054  161.0789 N.3     1  UNL1       -0.2720
     10 C         143.6902  140.4242  160.8818 C.3     1  UNL1        0.0768
     11 C         143.1551  139.4750  161.9127 C.3     1  UNL1        0.0433
     12 C         140.8493  140.8159  171.1996 C.3     1  UNL1        0.0754
     13 C         141.6100  140.1788  170.0747 C.ar    1  UNL1        0.1548
     14 C         141.4895  140.5266  168.6205 C.ar    1  UNL1        0.0580
     15 C         142.4297  139.6447  167.8536 C.ar    1  UNL1        0.1227
     16 N         143.1313  138.7519  168.8337 N.ar    1  UNL1       -0.0774
     17 O         142.6247  139.0819  170.2064 O.2     1  UNL1       -0.3578
     18 C         144.7011  142.5062  159.8349 C.3     1  UNL1        0.0730
     19 C         143.8284  142.5185  158.6149 C.3     1  UNL1        0.0294
     20 C         142.8756  143.6541  158.3856 C.3     1  UNL1        0.0666
     21 S         141.4511  143.5416  158.8418 S.3     1  UNL1       -0.0756
     22 C         141.1414  143.3776  160.3003 C.ar    1  UNL1        0.1930
     23 N         141.4023  144.3897  161.3762 N.ar    1  UNL1       -0.1224
     24 N         140.9385  143.8104  162.6798 N.ar    1  UNL1       -0.1328
     25 C         140.3909  142.4403  162.4095 C.ar    1  UNL1        0.1432
     26 N         140.5163  142.1728  160.9388 N.ar    1  UNL1       -0.2918
     27 C         140.0912  140.9205  160.2311 C.3     1  UNL1        0.1337
     28 C         139.8185  141.5024  163.4305 C.3     1  UNL1        0.0588
     29 C         139.7441  141.9159  164.8705 C.3     1  UNL1        0.0075
     30 C         139.1717  140.9779  165.8915 C.3     1  UNL1        0.0004
     31 C         138.6736  139.6265  165.4727 C.3     1  UNL1        0.0000
     32 C         138.1012  138.6885  166.4938 C.3     1  UNL1        0.0000
     33 C         138.7480  139.2130  164.0327 C.3     1  UNL1        0.0004
     34 C         139.3204  140.1509  163.0117 C.3     1  UNL1        0.0075
@<TRIPOS>BOND
     1    12    13    1
     2    13    14   ar
     3    14    15   ar
     4    15     1    1
     5     1     2   ar
     6     2     3   ar
     7     3     4   ar
     8     4     5   ar
     9     5     6   ar
    10     5     7    1
    11     7     8    1
    12     8     9    1
    13     9    18    1
    14    18    19    1
    15    19    20    1
    16    20    21    1
    17    21    22    1
    18    22    23   ar
    19    23    24   ar
    20    24    25   ar
    21    25    28    1
    22    28    29    1
    23    29    30    1
    24    30    31    1
    25    31    32    1
    26    31    33    1
    27    33    34    1
    28    25    26   ar
    29    26    27    1
    30     9    10    1
    31    10    11    1
    32    15    16   ar
    33    16    17   ar
    34    17    13   ar
    35     6     1   ar
    36    26    22   ar
    37    11     4    1
    38    34    28    1
@<TRIPOS>MOLECULE
*****
 34 38 0 0 0
SMALL
GASTEIGER

@<TRIPOS>ATOM
      1 C         143.0497  139.1691  162.8231 C.ar    1  UNL1        0.0206
      2 C         142.6029  137.9735  163.6110 C.ar    1  UNL1        0.0013
      3 C         142.4952  138.0572  165.1048 C.ar    1  UNL1       -0.0045
      4 C         142.8344  139.3367  165.8107 C.ar    1  UNL1       -0.0247
      5 C         143.2812  140.5322  165.0227 C.ar    1  UNL1       -0.0246
      6 C         143.3889  140.4485  163.5289 C.ar    1  UNL1       -0.0029
      7 C         143.6643  141.8930  165.5243 C.3     1  UNL1        0.0433
      8 C         143.6952  142.3942  166.9378 C.3     1  UNL1        0.0768
      9 N         143.3506  141.6584  168.1986 N.3     1  UNL1       -0.2720
     10 C         142.8900  140.2398  168.3576 C.3     1  UNL1        0.0768
     11 C         142.6603  139.2065  167.2948 C.3     1  UNL1        0.0433
     12 C         142.3139  137.6803  157.8108 C.3     1  UNL1        0.0754
     13 C         142.8191  138.4010  159.0254 C.ar    1  UNL1        0.1548
     14 C         142.4052  138.1374  160.4429 C.ar    1  UNL1        0.0580
     15 C         143.1573  139.0853  161.3293 C.ar    1  UNL1        0.1227
     16 N         144.0361  139.9348  160.4596 N.ar    1  UNL1       -0.0774
     17 O         143.8270  139.5119  159.0358 O.2     1  UNL1       -0.3578
     18 C         143.4843  142.4454  169.4686 C.3     1  UNL1        0.0730
     19 C         142.2980  143.1731  170.0285 C.3     1  UNL1        0.0294
     20 C         141.2256  142.4142  170.7523 C.3     1  UNL1        0.0666
     21 S         139.8374  142.3548  170.1874 S.3     1  UNL1       -0.0756
     22 C         139.4670  141.2695  169.2203 C.ar    1  UNL1        0.1930
     23 N         138.8327  139.9560  169.5698 N.ar    1  UNL1       -0.1224
     24 N         138.6396  139.1819  168.2996 N.ar    1  UNL1       -0.1328
     25 C         139.1545  140.0171  167.1650 C.ar    1  UNL1        0.1432
     26 N         139.6659  141.3074  167.7341 N.ar    1  UNL1       -0.2918
     27 C         140.2702  142.4370  166.9538 C.3     1  UNL1        0.1337
     28 C         139.1576  139.6301  165.7158 C.3     1  UNL1        0.0588
     29 C         139.4844  140.6518  164.6673 C.3     1  UNL1        0.0075
     30 C         139.4874  140.2647  163.2182 C.3     1  UNL1        0.0004
     31 C         139.1638  138.8560  162.8174 C.3     1  UNL1        0.0000
     32 C         139.1668  138.4689  161.3682 C.3     1  UNL1        0.0000
     33 C         138.8370  137.8343  163.8659 C.3     1  UNL1        0.0004
     34 C         138.8339  138.2213  165.3151 C.3     1  UNL1        0.0075
@<TRIPOS>BOND
     1    12    13    1
     2    13    14   ar
     3    14    15   ar
     4    15     1    1
     5     1     2   ar
     6     2     3   ar
     7     3     4   ar
     8     4     5   ar
     9     5     6   ar
    10     5     7    1
    11     7     8    1
    12     8     9    1
    13     9    18    1
    14    18    19    1
    15    19    20    1
    16    20    21    1
    17    21    22    1
    18    22    23   ar
    19    23    24   ar
    20    24    25   ar
    21    25    28    1
    22    28    29    1
    23    29    30    1
    24    30    31    1
    25    31    32    1
    26    31    33    1
    27    33    34    1
    28    25    26   ar
    29    26    27    1
    30     9    10    1
    31    10    11    1
    32    15    16   ar
    33    16    17   ar
    34    17    13   ar
    35     6     1   ar
    36    26    22   ar
    37    11     4    1
    38    34    28    1
@<TRIPOS>MOLECULE
*****
 34 38 0 0 0
SMALL
GASTEIGER

@<TRIPOS>ATOM
      1 C         140.9707  141.4497  165.2787 C.ar    1  UNL1        0.0206
      2 C         141.7599  142.5658  164.6611 C.ar    1  UNL1        0.0013
      3 C         142.1493  142.4978  163.2140 C.ar    1  UNL1       -0.0045
      4 C         141.7493  141.3135  162.3847 C.ar    1  UNL1       -0.0247
      5 C         140.9601  140.1976  163.0023 C.ar    1  UNL1       -0.0246
      6 C         140.5708  140.2656  164.4493 C.ar    1  UNL1       -0.0029
      7 C         140.4632  138.9364  162.3599 C.3     1  UNL1        0.0433
      8 C         140.6329  138.4799  160.9411 C.3     1  UNL1        0.0768
      9 N         141.3412  139.1717  159.8145 N.3     1  UNL1       -0.2720
     10 C         142.0550  140.4910  159.8282 C.3     1  UNL1        0.0768
     11 C         142.2366  141.4442  160.9721 C.3     1  UNL1        0.0433
     12 C         140.1428  143.2376  170.1775 C.3     1  UNL1        0.0754
     13 C         140.2008  142.3396  168.9775 C.ar    1  UNL1        0.1548
     14 C         140.7062  142.7181  167.6167 C.ar    1  UNL1        0.0580
     15 C         140.5814  141.5179  166.7257 C.ar    1  UNL1        0.1227
     16 N         139.9990  140.3977  167.5357 N.ar    1  UNL1       -0.0774
     17 O         139.7638  140.9056  168.9273 O.2     1  UNL1       -0.3578
     18 C         141.3351  138.4488  158.5002 C.3     1  UNL1        0.0730
     19 C         140.1073  138.4689  157.6388 C.3     1  UNL1        0.0294
     20 C         139.8022  139.6714  156.7956 C.3     1  UNL1        0.0666
     21 S         138.7308  140.6320  157.2189 S.3     1  UNL1       -0.0756
     22 C         138.3547  140.7457  158.6665 C.ar    1  UNL1        0.1930
     23 N         137.5828  139.7328  159.4591 N.ar    1  UNL1       -0.1224
     24 N         137.4355  140.2533  160.8582 N.ar    1  UNL1       -0.1328
     25 C         138.1164  141.5879  160.9302 C.ar    1  UNL1        0.1432
     26 N         138.6845  141.8923  159.5757 N.ar    1  UNL1       -0.2918
     27 C         139.4482  143.1265  159.1969 C.3     1  UNL1        0.1337
     28 C         138.2123  142.4644  162.1437 C.3     1  UNL1        0.0588
     29 C         137.5928  142.0249  163.4372 C.3     1  UNL1        0.0075
     30 C         137.6888  142.9014  164.6507 C.3     1  UNL1        0.0004
     31 C         138.4042  144.2173  164.5708 C.3     1  UNL1        0.0000
     32 C         138.5001  145.0938  165.7843 C.3     1  UNL1        0.0000
     33 C         139.0237  144.6568  163.2773 C.3     1  UNL1        0.0004
     34 C         138.9278  143.7803  162.0638 C.3     1  UNL1        0.0075
@<TRIPOS>BOND
     1    12    13    1
     2    13    14   ar
     3    14    15   ar
     4    15     1    1
     5     1     2   ar
     6     2     3   ar
     7     3     4   ar
     8     4     5   ar
     9     5     6   ar
    10     5     7    1
    11     7     8    1
    12     8     9    1
    13     9    18    1
    14    18    19    1
    15    19    20    1
    16    20    21    1
    17    21    22    1
    18    22    23   ar
    19    23    24   ar
    20    24    25   ar
    21    25    28    1
    22    28    29    1
    23    29    30    1
    24    30    31    1
    25    31    32    1
    26    31    33    1
    27    33    34    1
    28    25    26   ar
    29    26    27    1
    30     9    10    1
    31    10    11    1
    32    15    16   ar
    33    16    17   ar
    34    17    13   ar
    35     6     1   ar
    36    26    22   ar
    37    11     4    1
    38    34    28    1
@<TRIPOS>MOLECULE
*****
 34 38 0 0 0
SMALL
GASTEIGER

@<TRIPOS>ATOM
      1 C         141.0650  142.5639  167.0359 C.ar    1  UNL1        0.0206
      2 C         142.4995  142.3799  166.6378 C.ar    1  UNL1        0.0013
      3 C         142.9654  142.8274  165.2840 C.ar    1  UNL1       -0.0045
      4 C         141.9968  143.4590  164.3284 C.ar    1  UNL1       -0.0247
      5 C         140.5625  143.6430  164.7266 C.ar    1  UNL1       -0.0246
      6 C         140.0965  143.1955  166.0803 C.ar    1  UNL1       -0.0029
      7 C         139.4412  144.2449  163.9324 C.3     1  UNL1        0.0433
      8 C         139.4776  144.8113  162.5439 C.3     1  UNL1        0.0768
      9 N         140.6440  144.9158  161.6068 N.3     1  UNL1       -0.2720
     10 C         142.0623  144.4797  161.8265 C.3     1  UNL1        0.0768
     11 C         142.6644  143.8314  163.0378 C.3     1  UNL1        0.0433
     12 C         139.6476  139.5085  171.1023 C.3     1  UNL1        0.0754
     13 C         139.9476  140.7120  170.2588 C.ar    1  UNL1        0.1548
     14 C         140.4311  140.6951  168.8389 C.ar    1  UNL1        0.0580
     15 C         140.5991  142.1164  168.3897 C.ar    1  UNL1        0.1227
     16 N         140.2195  143.0116  169.5319 N.ar    1  UNL1       -0.0774
     17 O         139.8169  142.1436  170.6870 O.2     1  UNL1       -0.3578
     18 C         140.3538  145.5388  160.2735 C.3     1  UNL1        0.0730
     19 C         140.6535  144.7846  159.0120 C.3     1  UNL1        0.0294
     20 C         139.6615  143.7954  158.4759 C.3     1  UNL1        0.0666
     21 S         139.8671  142.3275  158.7054 S.3     1  UNL1       -0.0756
     22 C         139.7978  141.7688  160.0958 C.ar    1  UNL1        0.1930
     23 N         138.5720  141.6981  160.9575 N.ar    1  UNL1       -0.1224
     24 N         138.9586  141.0685  162.2629 N.ar    1  UNL1       -0.1328
     25 C         140.4234  140.7500  162.2080 C.ar    1  UNL1        0.1432
     26 N         140.9421  141.1829  160.8686 N.ar    1  UNL1       -0.2918
     27 C         142.3566  141.0526  160.3868 C.3     1  UNL1        0.1337
     28 C         141.2283  140.1109  163.3005 C.3     1  UNL1        0.0588
     29 C         142.7034  139.9047  163.1229 C.3     1  UNL1        0.0075
     30 C         143.5083  139.2656  164.2155 C.3     1  UNL1        0.0004
     31 C         142.8381  138.8327  165.4857 C.3     1  UNL1        0.0000
     32 C         143.6430  138.1936  166.5783 C.3     1  UNL1        0.0000
     33 C         141.3630  139.0389  165.6633 C.3     1  UNL1        0.0004
     34 C         140.5581  139.6780  164.5707 C.3     1  UNL1        0.0075
@<TRIPOS>BOND
     1    12    13    1
     2    13    14   ar
     3    14    15   ar
     4    15     1    1
     5     1     2   ar
     6     2     3   ar
     7     3     4   ar
     8     4     5   ar
     9     5     6   ar
    10     5     7    1
    11     7     8    1
    12     8     9    1
    13     9    18    1
    14    18    19    1
    15    19    20    1
    16    20    21    1
    17    21    22    1
    18    22    23   ar
    19    23    24   ar
    20    24    25   ar
    21    25    28    1
    22    28    29    1
    23    29    30    1
    24    30    31    1
    25    31    32    1
    26    31    33    1
    27    33    34    1
    28    25    26   ar
    29    26    27    1
    30     9    10    1
    31    10    11    1
    32    15    16   ar
    33    16    17   ar
    34    17    13   ar
    35     6     1   ar
    36    26    22   ar
    37    11     4    1
    38    34    28    1
