@<TRIPOS>MOLECULE
*****
 29 33 0 0 0
SMALL
GASTEIGER

@<TRIPOS>ATOM
      1 N         137.3969  142.3047  164.3998 N.pl3   1  UNL1       -0.3133
      2 C         138.5641  142.8391  163.6237 C.2     1  UNL1        0.2770
      3 N         139.9868  142.8923  164.0960 N.2     1  UNL1       -0.2204
      4 C         140.8154  143.5002  163.0033 C.3     1  UNL1        0.1537
      5 C         139.9048  143.8225  161.8558 C.3     1  UNL1        0.2350
      6 O         138.5135  143.4140  162.2392 O.2     1  UNL1       -0.4478
      7 C         141.5990  143.1237  164.2258 C.ar    1  UNL1        0.0355
      8 C         140.9032  142.5045  165.4014 C.ar    1  UNL1        0.0007
      9 C         141.6868  142.1280  166.6239 C.ar    1  UNL1        0.0015
     10 C         143.1663  142.3708  166.6706 C.ar    1  UNL1        0.0031
     11 C         143.8621  142.9901  165.4948 C.ar    1  UNL1        0.0366
     12 C         143.0785  143.3666  164.2725 C.ar    1  UNL1        0.1364
     13 O         143.7744  143.9859  163.0967 O.3     1  UNL1       -0.4756
     14 C         142.9908  144.3623  161.8743 C.3     1  UNL1        0.2074
     15 C         141.5113  144.1195  161.8276 C.3     1  UNL1        0.0666
     16 C         140.2047  144.1966  161.0949 C.3     1  UNL1        0.0061
     17 C         141.4606  144.6943  160.4431 C.3     1  UNL1        0.0061
     18 H         137.5315  141.9461  165.3067 H       1  UNL1        0.1466
     19 H         136.4963  142.3126  164.0022 H       1  UNL1        0.1466
     20 C         140.9909  141.5087  167.7995 C.ar    1  UNL1        0.0222
     21 C         141.4655  141.8022  169.1919 C.ar    1  UNL1        0.0991
     22 N         140.7696  141.1829  170.3676 N.ar    1  UNL1       -0.2391
     23 C         139.5991  140.2701  170.1509 C.ar    1  UNL1        0.1358
     24 C         139.1246  139.9767  168.7585 C.ar    1  UNL1        0.1634
     25 C         139.8205  140.5960  167.5828 C.ar    1  UNL1        0.0403
     26 O         137.9541  139.0640  168.5418 O.3     1  UNL1       -0.4220
     27 C         137.6694  138.5217  167.1726 C.3     1  UNL1        0.5087
     28 F         137.5689  139.4547  166.0023 F       1  UNL1       -0.1550
     29 F         137.4853  137.0464  166.9736 F       1  UNL1       -0.1550
@<TRIPOS>BOND
     1     1     2    1
     2     2     3    2
     3     3     4    1
     4     4     5    1
     5     5     6    1
     6     4     7    1
     7     7     8   ar
     8     8     9   ar
     9     9    20    1
    10    20    21   ar
    11    21    22   ar
    12    22    23   ar
    13    23    24   ar
    14    24    26    1
    15    26    27    1
    16    27    28    1
    17    27    29    1
    18    24    25   ar
    19     9    10   ar
    20    10    11   ar
    21    11    12   ar
    22    12    13    1
    23    13    14    1
    24    14    15    1
    25    15    16    1
    26    16    17    1
    27     6     2    1
    28    12     7   ar
    29    17    15    1
    30    15     4    1
    31    25    20   ar
    32     1    18    1
    33     1    19    1
@<TRIPOS>MOLECULE
*****
 29 33 0 0 0
SMALL
GASTEIGER

@<TRIPOS>ATOM
      1 N         143.3540  141.7723  164.6516 N.pl3   1  UNL1       -0.3133
      2 C         142.7884  141.7427  166.0406 C.2     1  UNL1        0.2770
      3 N         141.5413  141.0282  166.4697 N.2     1  UNL1       -0.2204
      4 C         141.3529  141.2664  167.9387 C.3     1  UNL1        0.1537
      5 C         142.4836  142.1279  168.4174 C.3     1  UNL1        0.2350
      6 O         143.3708  142.4223  167.2444 O.2     1  UNL1       -0.4478
      7 C         140.2874  140.4126  167.3174 C.ar    1  UNL1        0.0355
      8 C         140.3442  140.0892  165.8538 C.ar    1  UNL1        0.0007
      9 C         139.2787  139.2354  165.2325 C.ar    1  UNL1        0.0015
     10 C         138.1566  138.7050  166.0748 C.ar    1  UNL1        0.0031
     11 C         138.0999  139.0285  167.5385 C.ar    1  UNL1        0.0366
     12 C         139.1653  139.8822  168.1597 C.ar    1  UNL1        0.1364
     13 O         139.1086  140.2056  169.6234 O.3     1  UNL1       -0.4756
     14 C         140.1741  141.0594  170.2447 C.3     1  UNL1        0.2074
     15 C         141.2962  141.5897  169.4023 C.3     1  UNL1        0.0666
     16 C         142.5591  142.3889  169.2747 C.3     1  UNL1        0.0061
     17 C         141.8786  142.2694  170.6060 C.3     1  UNL1        0.0061
     18 H         142.8968  141.2923  163.9236 H       1  UNL1        0.1466
     19 H         144.1822  142.2717  164.4679 H       1  UNL1        0.1466
     20 C         139.3354  138.9120  163.7689 C.ar    1  UNL1        0.0222
     21 C         138.1424  139.1700  162.8970 C.ar    1  UNL1        0.0991
     22 N         138.1991  138.8467  161.4334 N.ar    1  UNL1       -0.2391
     23 C         139.4489  138.2653  160.8416 C.ar    1  UNL1        0.1358
     24 C         140.6419  138.0072  161.7135 C.ar    1  UNL1        0.1634
     25 C         140.5851  138.3307  163.1772 C.ar    1  UNL1        0.0403
     26 O         141.8916  137.4259  161.1218 O.3     1  UNL1       -0.4220
     27 C         143.2181  138.0751  161.3843 C.3     1  UNL1        0.5087
     28 F         144.4749  137.2573  161.3419 F       1  UNL1       -0.1550
     29 F         143.2878  139.5421  161.6893 F       1  UNL1       -0.1550
@<TRIPOS>BOND
     1     1     2    1
     2     2     3    2
     3     3     4    1
     4     4     5    1
     5     5     6    1
     6     4     7    1
     7     7     8   ar
     8     8     9   ar
     9     9    20    1
    10    20    21   ar
    11    21    22   ar
    12    22    23   ar
    13    23    24   ar
    14    24    26    1
    15    26    27    1
    16    27    28    1
    17    27    29    1
    18    24    25   ar
    19     9    10   ar
    20    10    11   ar
    21    11    12   ar
    22    12    13    1
    23    13    14    1
    24    14    15    1
    25    15    16    1
    26    16    17    1
    27     6     2    1
    28    12     7   ar
    29    17    15    1
    30    15     4    1
    31    25    20   ar
    32     1    18    1
    33     1    19    1
@<TRIPOS>MOLECULE
*****
 29 33 0 0 0
SMALL
GASTEIGER

@<TRIPOS>ATOM
      1 N         139.2266  144.4365  165.7100 N.pl3   1  UNL1       -0.3133
      2 C         138.9297  143.5894  164.5081 C.2     1  UNL1        0.2770
      3 N         138.9007  142.0902  164.4715 N.2     1  UNL1       -0.2204
      4 C         138.5627  141.6672  163.0725 C.3     1  UNL1        0.1537
      5 C         138.3829  142.9051  162.2447 C.3     1  UNL1        0.2350
      6 O         138.6097  144.0930  163.1318 O.2     1  UNL1       -0.4478
      7 C         138.7726  140.5247  164.0216 C.ar    1  UNL1        0.0355
      8 C         139.1170  140.7949  165.4562 C.ar    1  UNL1        0.0007
      9 C         139.3269  139.6524  166.4053 C.ar    1  UNL1        0.0015
     10 C         139.1924  138.2396  165.9195 C.ar    1  UNL1        0.0031
     11 C         138.8480  137.9694  164.4848 C.ar    1  UNL1        0.0366
     12 C         138.6381  139.1119  163.5358 C.ar    1  UNL1        0.1364
     13 O         138.2937  138.8417  162.1011 O.3     1  UNL1       -0.4756
     14 C         138.0838  139.9842  161.1521 C.3     1  UNL1        0.2074
     15 C         138.2183  141.3970  161.6379 C.3     1  UNL1        0.0666
     16 C         138.1748  142.8723  161.3704 C.3     1  UNL1        0.0061
     17 C         137.8983  141.9006  160.2616 C.3     1  UNL1        0.0061
     18 H         139.4263  144.0108  166.5750 H       1  UNL1        0.1466
     19 H         139.2218  145.4180  165.6338 H       1  UNL1        0.1466
     20 C         139.6713  139.9227  167.8399 C.ar    1  UNL1        0.0222
     21 C         138.6090  139.8360  168.8954 C.ar    1  UNL1        0.0991
     22 N         138.9533  140.1063  170.3300 N.ar    1  UNL1       -0.2391
     23 C         140.3601  140.4632  170.7093 C.ar    1  UNL1        0.1358
     24 C         141.4224  140.5498  169.6538 C.ar    1  UNL1        0.1634
     25 C         141.0779  140.2795  168.2191 C.ar    1  UNL1        0.0403
     26 O         142.8291  140.9067  170.0330 O.3     1  UNL1       -0.4220
     27 C         143.2899  142.3316  169.9490 C.3     1  UNL1        0.5087
     28 F         144.7508  142.6402  169.8056 F       1  UNL1       -0.1550
     29 F         142.2899  143.4481  170.0083 F       1  UNL1       -0.1550
@<TRIPOS>BOND
     1     1     2    1
     2     2     3    2
     3     3     4    1
     4     4     5    1
     5     5     6    1
     6     4     7    1
     7     7     8   ar
     8     8     9   ar
     9     9    20    1
    10    20    21   ar
    11    21    22   ar
    12    22    23   ar
    13    23    24   ar
    14    24    26    1
    15    26    27    1
    16    27    28    1
    17    27    29    1
    18    24    25   ar
    19     9    10   ar
    20    10    11   ar
    21    11    12   ar
    22    12    13    1
    23    13    14    1
    24    14    15    1
    25    15    16    1
    26    16    17    1
    27     6     2    1
    28    12     7   ar
    29    17    15    1
    30    15     4    1
    31    25    20   ar
    32     1    18    1
    33     1    19    1
@<TRIPOS>MOLECULE
*****
 29 33 0 0 0
SMALL
GASTEIGER

@<TRIPOS>ATOM
      1 N         142.8960  143.2207  164.4867 N.pl3   1  UNL1       -0.3133
      2 C         142.6813  142.6428  165.8543 C.2     1  UNL1        0.2770
      3 N         141.5538  141.7423  166.2637 N.2     1  UNL1       -0.2204
      4 C         141.7321  141.4069  167.7149 C.3     1  UNL1        0.1537
      5 C         142.9698  142.1002  168.2022 C.3     1  UNL1        0.2350
      6 O         143.5564  142.8640  167.0523 O.2     1  UNL1       -0.4478
      7 C         140.5235  140.7779  167.0873 C.ar    1  UNL1        0.0355
      8 C         140.2163  141.0238  165.6399 C.ar    1  UNL1        0.0007
      9 C         139.0078  140.3947  165.0123 C.ar    1  UNL1        0.0015
     10 C         138.1066  139.5197  165.8322 C.ar    1  UNL1        0.0031
     11 C         138.4139  139.2738  167.2797 C.ar    1  UNL1        0.0366
     12 C         139.6223  139.9029  167.9072 C.ar    1  UNL1        0.1364
     13 O         139.9297  139.6570  169.3547 O.3     1  UNL1       -0.4756
     14 C         141.1381  140.2860  169.9822 C.3     1  UNL1        0.2074
     15 C         142.0393  141.1610  169.1623 C.3     1  UNL1        0.0666
     16 C         143.2573  142.0294  169.0513 C.3     1  UNL1        0.0061
     17 C         142.9145  141.3822  170.3603 C.3     1  UNL1        0.0061
     18 H         142.2630  143.0163  163.7610 H       1  UNL1        0.1466
     19 H         143.6700  143.8044  164.3150 H       1  UNL1        0.1466
     20 C         138.7005  140.6406  163.5649 C.ar    1  UNL1        0.0222
     21 C         138.1498  139.5331  162.7164 C.ar    1  UNL1        0.0991
     22 N         137.8425  139.7790  161.2689 N.ar    1  UNL1       -0.2391
     23 C         138.0860  141.1325  160.6700 C.ar    1  UNL1        0.1358
     24 C         138.6367  142.2401  161.5185 C.ar    1  UNL1        0.1634
     25 C         138.9440  141.9941  162.9660 C.ar    1  UNL1        0.0403
     26 O         138.8802  143.5936  160.9196 O.3     1  UNL1       -0.4220
     27 C         139.6560  144.6240  161.6853 C.3     1  UNL1        0.5087
     28 F         138.9772  145.4382  162.7466 F       1  UNL1       -0.1550
     29 F         141.1106  144.8402  161.3898 F       1  UNL1       -0.1550
@<TRIPOS>BOND
     1     1     2    1
     2     2     3    2
     3     3     4    1
     4     4     5    1
     5     5     6    1
     6     4     7    1
     7     7     8   ar
     8     8     9   ar
     9     9    20    1
    10    20    21   ar
    11    21    22   ar
    12    22    23   ar
    13    23    24   ar
    14    24    26    1
    15    26    27    1
    16    27    28    1
    17    27    29    1
    18    24    25   ar
    19     9    10   ar
    20    10    11   ar
    21    11    12   ar
    22    12    13    1
    23    13    14    1
    24    14    15    1
    25    15    16    1
    26    16    17    1
    27     6     2    1
    28    12     7   ar
    29    17    15    1
    30    15     4    1
    31    25    20   ar
    32     1    18    1
    33     1    19    1
@<TRIPOS>MOLECULE
*****
 29 33 0 0 0
SMALL
GASTEIGER

@<TRIPOS>ATOM
      1 N         137.7596  143.7449  164.0789 N.pl3   1  UNL1       -0.3133
      2 C         138.0154  142.8795  162.8806 C.2     1  UNL1        0.2770
      3 N         138.4836  141.4547  162.9060 N.2     1  UNL1       -0.2204
      4 C         138.6054  140.9816  161.4877 C.3     1  UNL1        0.1537
      5 C         138.2124  142.1141  160.5859 C.3     1  UNL1        0.2350
      6 O         137.8477  143.2870  161.4468 O.2     1  UNL1       -0.4478
      7 C         138.9695  139.9459  162.5098 C.ar    1  UNL1        0.0355
      8 C         138.8957  140.2759  163.9711 C.ar    1  UNL1        0.0007
      9 C         139.2599  139.2401  164.9933 C.ar    1  UNL1        0.0015
     10 C         139.6978  137.8743  164.5539 C.ar    1  UNL1        0.0031
     11 C         139.7715  137.5444  163.0925 C.ar    1  UNL1        0.0366
     12 C         139.4074  138.5801  162.0704 C.ar    1  UNL1        0.1364
     13 O         139.4812  138.2502  160.6090 O.3     1  UNL1       -0.4756
     14 C         139.1171  139.2859  159.5870 C.3     1  UNL1        0.2074
     15 C         138.6792  140.6517  160.0263 C.3     1  UNL1        0.0666
     16 C         138.2161  142.0381  159.6898 C.3     1  UNL1        0.0061
     17 C         138.5115  141.0592  158.5925 C.3     1  UNL1        0.0061
     18 H         137.8991  143.3853  164.9846 H       1  UNL1        0.1466
     19 H         137.4523  144.6726  163.9595 H       1  UNL1        0.1466
     20 C         139.1861  139.5701  166.4546 C.ar    1  UNL1        0.0222
     21 C         138.1376  138.9306  167.3159 C.ar    1  UNL1        0.0991
     22 N         138.0638  139.2606  168.7773 N.ar    1  UNL1       -0.2391
     23 C         139.0386  140.2301  169.3774 C.ar    1  UNL1        0.1358
     24 C         140.0871  140.8695  168.5161 C.ar    1  UNL1        0.1634
     25 C         140.1608  140.5395  167.0547 C.ar    1  UNL1        0.0403
     26 O         141.0618  141.8389  169.1162 O.3     1  UNL1       -0.4220
     27 C         140.5857  142.8744  170.0914 C.3     1  UNL1        0.5087
     28 F         140.1785  142.4687  171.4770 F       1  UNL1       -0.1550
     29 F         140.5166  144.3155  169.6812 F       1  UNL1       -0.1550
@<TRIPOS>BOND
     1     1     2    1
     2     2     3    2
     3     3     4    1
     4     4     5    1
     5     5     6    1
     6     4     7    1
     7     7     8   ar
     8     8     9   ar
     9     9    20    1
    10    20    21   ar
    11    21    22   ar
    12    22    23   ar
    13    23    24   ar
    14    24    26    1
    15    26    27    1
    16    27    28    1
    17    27    29    1
    18    24    25   ar
    19     9    10   ar
    20    10    11   ar
    21    11    12   ar
    22    12    13    1
    23    13    14    1
    24    14    15    1
    25    15    16    1
    26    16    17    1
    27     6     2    1
    28    12     7   ar
    29    17    15    1
    30    15     4    1
    31    25    20   ar
    32     1    18    1
    33     1    19    1
@<TRIPOS>MOLECULE
*****
 29 33 0 0 0
SMALL
GASTEIGER

@<TRIPOS>ATOM
      1 N         144.0866  142.3061  165.4131 N.pl3   1  UNL1       -0.3133
      2 C         143.7702  141.3287  164.3201 C.2     1  UNL1        0.2770
      3 N         142.6054  140.3842  164.2920 N.2     1  UNL1       -0.2204
      4 C         142.6784  139.5960  163.0177 C.3     1  UNL1        0.1537
      5 C         143.8885  140.0535  162.2585 C.3     1  UNL1        0.2350
      6 O         144.5632  141.1243  163.0633 O.2     1  UNL1       -0.4478
      7 C         141.5080  139.2432  163.8872 C.ar    1  UNL1        0.0355
      8 C         141.3049  139.9500  165.1945 C.ar    1  UNL1        0.0007
      9 C         140.1345  139.5972  166.0639 C.ar    1  UNL1        0.0015
     10 C         139.1673  138.5376  165.6259 C.ar    1  UNL1        0.0031
     11 C         139.3705  137.8308  164.3185 C.ar    1  UNL1        0.0366
     12 C         140.5409  138.1836  163.4492 C.ar    1  UNL1        0.1364
     13 O         140.7441  137.4768  162.1418 O.3     1  UNL1       -0.4756
     14 C         141.9144  137.8296  161.2724 C.3     1  UNL1        0.2074
     15 C         142.8816  138.8892  161.7104 C.3     1  UNL1        0.0666
     16 C         144.1157  139.7046  161.4613 C.3     1  UNL1        0.0061
     17 C         143.6746  138.6848  160.4537 C.3     1  UNL1        0.0061
     18 H         143.5027  142.3668  166.2034 H       1  UNL1        0.1466
     19 H         144.8782  142.8868  165.3402 H       1  UNL1        0.1466
     20 C         139.9314  140.3040  167.3712 C.ar    1  UNL1        0.0222
     21 C         140.4428  141.7020  167.5554 C.ar    1  UNL1        0.0991
     22 N         140.2397  142.4088  168.8627 N.ar    1  UNL1       -0.2391
     23 C         139.5250  141.7175  169.9860 C.ar    1  UNL1        0.1358
     24 C         139.0136  140.3195  169.8018 C.ar    1  UNL1        0.1634
     25 C         139.2168  139.6127  168.4944 C.ar    1  UNL1        0.0403
     26 O         138.2990  139.6283  170.9249 O.3     1  UNL1       -0.4220
     27 C         136.8542  139.2535  170.7765 C.3     1  UNL1        0.5087
     28 F         135.8149  139.9212  171.6277 F       1  UNL1       -0.1550
     29 F         136.4485  138.2112  169.7771 F       1  UNL1       -0.1550
@<TRIPOS>BOND
     1     1     2    1
     2     2     3    2
     3     3     4    1
     4     4     5    1
     5     5     6    1
     6     4     7    1
     7     7     8   ar
     8     8     9   ar
     9     9    20    1
    10    20    21   ar
    11    21    22   ar
    12    22    23   ar
    13    23    24   ar
    14    24    26    1
    15    26    27    1
    16    27    28    1
    17    27    29    1
    18    24    25   ar
    19     9    10   ar
    20    10    11   ar
    21    11    12   ar
    22    12    13    1
    23    13    14    1
    24    14    15    1
    25    15    16    1
    26    16    17    1
    27     6     2    1
    28    12     7   ar
    29    17    15    1
    30    15     4    1
    31    25    20   ar
    32     1    18    1
    33     1    19    1
@<TRIPOS>MOLECULE
*****
 29 33 0 0 0
SMALL
GASTEIGER

@<TRIPOS>ATOM
      1 N         143.3177  141.7756  164.6652 N.pl3   1  UNL1       -0.3133
      2 C         142.7321  141.7324  166.0456 C.2     1  UNL1        0.2770
      3 N         141.4813  141.0103  166.4503 N.2     1  UNL1       -0.2204
      4 C         141.2707  141.2354  167.9184 C.3     1  UNL1        0.1537
      5 C         142.3915  142.0965  168.4208 C.3     1  UNL1        0.2350
      6 O         143.2947  142.4036  167.2633 O.2     1  UNL1       -0.4478
      7 C         140.2173  140.3835  167.2744 C.ar    1  UNL1        0.0355
      8 C         140.2964  140.0727  165.8091 C.ar    1  UNL1        0.0007
      9 C         139.2429  139.2208  165.1652 C.ar    1  UNL1        0.0015
     10 C         138.1104  138.6798  165.9866 C.ar    1  UNL1        0.0031
     11 C         138.0314  138.9906  167.4519 C.ar    1  UNL1        0.0366
     12 C         139.0848  139.8424  168.0958 C.ar    1  UNL1        0.1364
     13 O         139.0058  140.1532  169.5612 O.3     1  UNL1       -0.4756
     14 C         140.0592  141.0051  170.2051 C.3     1  UNL1        0.2074
     15 C         141.1917  141.5461  169.3837 C.3     1  UNL1        0.0666
     16 C         142.4537  142.3503  169.2813 C.3     1  UNL1        0.0061
     17 C         141.7542  142.2174  170.6015 C.3     1  UNL1        0.0061
     18 H         142.8729  141.3003  163.9266 H       1  UNL1        0.1466
     19 H         144.1469  142.2792  164.4978 H       1  UNL1        0.1466
     20 C         139.3220  138.9101  163.6999 C.ar    1  UNL1        0.0222
     21 C         140.3414  137.9326  163.1944 C.ar    1  UNL1        0.0991
     22 N         140.4205  137.6219  161.7291 N.ar    1  UNL1       -0.2391
     23 C         139.4801  138.2886  160.7692 C.ar    1  UNL1        0.1358
     24 C         138.4608  139.2660  161.2747 C.ar    1  UNL1        0.1634
     25 C         138.3817  139.5768  162.7400 C.ar    1  UNL1        0.0403
     26 O         137.5205  139.9327  160.3148 O.3     1  UNL1       -0.4220
     27 C         138.0543  140.5918  159.0777 C.3     1  UNL1        0.5087
     28 F         138.5509  139.7544  157.9365 F       1  UNL1       -0.1550
     29 F         138.0915  142.0882  158.9816 F       1  UNL1       -0.1550
@<TRIPOS>BOND
     1     1     2    1
     2     2     3    2
     3     3     4    1
     4     4     5    1
     5     5     6    1
     6     4     7    1
     7     7     8   ar
     8     8     9   ar
     9     9    20    1
    10    20    21   ar
    11    21    22   ar
    12    22    23   ar
    13    23    24   ar
    14    24    26    1
    15    26    27    1
    16    27    28    1
    17    27    29    1
    18    24    25   ar
    19     9    10   ar
    20    10    11   ar
    21    11    12   ar
    22    12    13    1
    23    13    14    1
    24    14    15    1
    25    15    16    1
    26    16    17    1
    27     6     2    1
    28    12     7   ar
    29    17    15    1
    30    15     4    1
    31    25    20   ar
    32     1    18    1
    33     1    19    1
@<TRIPOS>MOLECULE
*****
 29 33 0 0 0
SMALL
GASTEIGER

@<TRIPOS>ATOM
      1 N         138.9691  145.0324  165.4085 N.pl3   1  UNL1       -0.3133
      2 C         139.6922  144.8573  164.1059 C.2     1  UNL1        0.2770
      3 N         140.8801  143.9727  163.8690 N.2     1  UNL1       -0.2204
      4 C         141.2763  144.1048  162.4283 C.3     1  UNL1        0.1537
      5 C         140.3332  145.0711  161.7749 C.3     1  UNL1        0.2350
      6 O         139.3542  145.5361  162.8117 O.2     1  UNL1       -0.4478
      7 C         142.1387  143.1622  163.2143 C.ar    1  UNL1        0.0355
      8 C         141.8618  142.9291  164.6700 C.ar    1  UNL1        0.0007
      9 C         142.7242  141.9865  165.4560 C.ar    1  UNL1        0.0015
     10 C         143.8635  141.2769  164.7863 C.ar    1  UNL1        0.0031
     11 C         144.1404  141.5100  163.3306 C.ar    1  UNL1        0.0366
     12 C         143.2780  142.4526  162.5446 C.ar    1  UNL1        0.1364
     13 O         143.5550  142.6857  161.0889 O.3     1  UNL1       -0.4756
     14 C         142.6926  143.6283  160.3030 C.3     1  UNL1        0.2074
     15 C         141.5533  144.3379  160.9726 C.3     1  UNL1        0.0666
     16 C         140.3976  145.2918  160.9055 C.3     1  UNL1        0.0061
     17 C         141.2153  145.0167  159.6784 C.3     1  UNL1        0.0061
     18 H         139.2678  144.5407  166.2073 H       1  UNL1        0.1466
     19 H         138.1957  145.6391  165.4645 H       1  UNL1        0.1466
     20 C         142.4472  141.7534  166.9116 C.ar    1  UNL1        0.0222
     21 C         143.3347  142.3699  167.9520 C.ar    1  UNL1        0.0991
     22 N         143.0578  142.1368  169.4077 N.ar    1  UNL1       -0.2391
     23 C         141.8933  141.2873  169.8230 C.ar    1  UNL1        0.1358
     24 C         141.0058  140.6709  168.7826 C.ar    1  UNL1        0.1634
     25 C         141.2828  140.9040  167.3269 C.ar    1  UNL1        0.0403
     26 O         139.8414  139.8215  169.1979 O.3     1  UNL1       -0.4220
     27 C         138.7091  140.4280  169.9724 C.3     1  UNL1        0.5087
     28 F         138.7803  141.8623  170.4058 F       1  UNL1       -0.1550
     29 F         137.5056  139.6003  170.3137 F       1  UNL1       -0.1550
@<TRIPOS>BOND
     1     1     2    1
     2     2     3    2
     3     3     4    1
     4     4     5    1
     5     5     6    1
     6     4     7    1
     7     7     8   ar
     8     8     9   ar
     9     9    20    1
    10    20    21   ar
    11    21    22   ar
    12    22    23   ar
    13    23    24   ar
    14    24    26    1
    15    26    27    1
    16    27    28    1
    17    27    29    1
    18    24    25   ar
    19     9    10   ar
    20    10    11   ar
    21    11    12   ar
    22    12    13    1
    23    13    14    1
    24    14    15    1
    25    15    16    1
    26    16    17    1
    27     6     2    1
    28    12     7   ar
    29    17    15    1
    30    15     4    1
    31    25    20   ar
    32     1    18    1
    33     1    19    1
@<TRIPOS>MOLECULE
*****
 29 33 0 0 0
SMALL
GASTEIGER

@<TRIPOS>ATOM
      1 N         143.8540  143.5418  165.1687 N.pl3   1  UNL1       -0.3133
      2 C         142.9212  143.5652  163.9942 C.2     1  UNL1        0.2770
      3 N         141.5845  142.8890  163.9164 N.2     1  UNL1       -0.2204
      4 C         140.9986  143.1748  162.5654 C.3     1  UNL1        0.1537
      5 C         141.9731  144.0276  161.8084 C.3     1  UNL1        0.2350
      6 O         143.1613  144.2688  162.6914 O.2     1  UNL1       -0.4478
      7 C         140.1268  142.3243  163.4411 C.ar    1  UNL1        0.0355
      8 C         140.5826  141.9560  164.8219 C.ar    1  UNL1        0.0007
      9 C         139.7109  141.1054  165.6975 C.ar    1  UNL1        0.0015
     10 C         138.3834  140.6232  165.1923 C.ar    1  UNL1        0.0031
     11 C         137.9277  140.9914  163.8114 C.ar    1  UNL1        0.0366
     12 C         138.7994  141.8420  162.9358 C.ar    1  UNL1        0.1364
     13 O         138.3436  142.2103  161.5550 O.3     1  UNL1       -0.4756
     14 C         139.2153  143.0608  160.6794 C.3     1  UNL1        0.2074
     15 C         140.5428  143.5431  161.1846 C.3     1  UNL1        0.0666
     16 C         141.8124  144.3126  160.9707 C.3     1  UNL1        0.0061
     17 C         140.7829  144.2468  159.8819 C.3     1  UNL1        0.0061
     18 H         143.6062  143.0494  165.9844 H       1  UNL1        0.1466
     19 H         144.7141  144.0188  165.1238 H       1  UNL1        0.1466
     20 C         140.1666  140.7372  167.0783 C.ar    1  UNL1        0.0222
     21 C         139.2252  140.0459  168.0195 C.ar    1  UNL1        0.0991
     22 N         139.6809  139.6777  169.4002 N.ar    1  UNL1       -0.2391
     23 C         141.0782  140.0007  169.8400 C.ar    1  UNL1        0.1358
     24 C         142.0197  140.6920  168.8988 C.ar    1  UNL1        0.1634
     25 C         141.5639  141.0603  167.5179 C.ar    1  UNL1        0.0403
     26 O         143.4169  141.0150  169.3385 O.3     1  UNL1       -0.4220
     27 C         143.7465  142.3899  169.8395 C.3     1  UNL1        0.5087
     28 F         142.6520  143.3938  170.0502 F       1  UNL1       -0.1550
     29 F         145.1706  142.7610  170.1298 F       1  UNL1       -0.1550
@<TRIPOS>BOND
     1     1     2    1
     2     2     3    2
     3     3     4    1
     4     4     5    1
     5     5     6    1
     6     4     7    1
     7     7     8   ar
     8     8     9   ar
     9     9    20    1
    10    20    21   ar
    11    21    22   ar
    12    22    23   ar
    13    23    24   ar
    14    24    26    1
    15    26    27    1
    16    27    28    1
    17    27    29    1
    18    24    25   ar
    19     9    10   ar
    20    10    11   ar
    21    11    12   ar
    22    12    13    1
    23    13    14    1
    24    14    15    1
    25    15    16    1
    26    16    17    1
    27     6     2    1
    28    12     7   ar
    29    17    15    1
    30    15     4    1
    31    25    20   ar
    32     1    18    1
    33     1    19    1
