@<TRIPOS>MOLECULE
*****
 19 20 0 0 0
SMALL
GASTEIGER

@<TRIPOS>ATOM
      1 C         140.5412  140.4810  167.2532 C.ar    1  UNL1        0.0511
      2 C         141.9222  140.0170  166.8961 C.ar    1  UNL1        0.0163
      3 C         142.7972  139.3919  167.9419 C.ar    1  UNL1        0.0253
      4 C         142.2913  139.2309  169.3447 C.ar    1  UNL1        0.1365
      5 C         140.9103  139.6949  169.7018 C.ar    1  UNL1        0.1541
      6 O         140.4043  139.5338  171.1047 O.3     1  UNL1       -0.5039
      7 C         140.0353  140.3199  168.6560 C.ar    1  UNL1        0.0527
      8 H         140.9509  139.1434  171.7580 H       1  UNL1        0.2923
      9 C         138.6288  140.2803  165.5061 C.3     1  UNL1        0.1122
     10 N         139.6662  141.1060  166.2074 N.pl3   1  UNL1       -0.3040
     11 C         139.8286  142.5568  165.8629 C.3     1  UNL1        0.1122
     12 N         143.1663  138.6058  170.3905 N.2     1  UNL1       -0.1435
     13 N         143.7039  137.2201  170.1882 N.2     1  UNL1       -0.1284
     14 C         144.5789  136.5951  171.2340 C.ar    1  UNL1        0.1838
     15 C         144.4515  135.1326  171.5422 C.ar    1  UNL1        0.0406
     16 C         145.3265  134.5075  172.5880 C.ar    1  UNL1        0.0048
     17 C         146.3290  135.3450  173.3255 C.ar    1  UNL1        0.0208
     18 C         146.4563  136.8074  173.0173 C.ar    1  UNL1        0.1006
     19 N         145.5813  137.4324  171.9715 N.ar    1  UNL1       -0.2236
@<TRIPOS>BOND
     1     9    10    1
     2    10    11    1
     3    10     1    1
     4     1     2   ar
     5     2     3   ar
     6     3     4   ar
     7     4    12    1
     8    12    13    2
     9    13    14    1
    10    14    15   ar
    11    15    16   ar
    12    16    17   ar
    13    17    18   ar
    14    18    19   ar
    15     4     5   ar
    16     5     6    1
    17     5     7   ar
    18     7     1   ar
    19    19    14   ar
    20     6     8    1
@<TRIPOS>MOLECULE
*****
 19 20 0 0 0
SMALL
GASTEIGER

@<TRIPOS>ATOM
      1 C         140.8773  140.6900  167.4104 C.ar    1  UNL1        0.0511
      2 C         140.6561  140.9739  168.8665 C.ar    1  UNL1        0.0163
      3 C         141.4986  140.2880  169.9008 C.ar    1  UNL1        0.0253
      4 C         142.5623  139.3182  169.4790 C.ar    1  UNL1        0.1365
      5 C         142.7835  139.0343  168.0228 C.ar    1  UNL1        0.1541
      6 O         143.8472  138.0644  167.6009 O.3     1  UNL1       -0.5039
      7 C         141.9410  139.7202  166.9885 C.ar    1  UNL1        0.0527
      8 H         144.3735  137.6359  168.2469 H       1  UNL1        0.2923
      9 C         139.9531  142.8734  166.3481 C.3     1  UNL1        0.1122
     10 N         140.0349  141.3760  166.3761 N.pl3   1  UNL1       -0.3040
     11 C         139.2741  140.5644  165.3698 C.3     1  UNL1        0.1122
     12 N         143.4047  138.6322  170.5132 N.2     1  UNL1       -0.1435
     13 N         143.7861  137.1925  170.3355 N.2     1  UNL1       -0.1284
     14 C         144.6285  136.5065  171.3698 C.ar    1  UNL1        0.1838
     15 C         145.6122  137.2972  172.1806 C.ar    1  UNL1        0.0406
     16 C         146.4547  136.6112  173.2149 C.ar    1  UNL1        0.0048
     17 C         146.3135  135.1347  173.4383 C.ar    1  UNL1        0.0208
     18 C         145.3298  134.3441  172.6276 C.ar    1  UNL1        0.1006
     19 N         144.4874  135.0300  171.5933 N.ar    1  UNL1       -0.2236
@<TRIPOS>BOND
     1     9    10    1
     2    10    11    1
     3    10     1    1
     4     1     2   ar
     5     2     3   ar
     6     3     4   ar
     7     4    12    1
     8    12    13    2
     9    13    14    1
    10    14    15   ar
    11    15    16   ar
    12    16    17   ar
    13    17    18   ar
    14    18    19   ar
    15     4     5   ar
    16     5     6    1
    17     5     7   ar
    18     7     1   ar
    19    19    14   ar
    20     6     8    1
@<TRIPOS>MOLECULE
*****
 19 20 0 0 0
SMALL
GASTEIGER

@<TRIPOS>ATOM
      1 C         143.5888  142.9094  160.5760 C.ar    1  UNL1        0.0511
      2 C         142.3909  143.0423  161.4688 C.ar    1  UNL1        0.0163
      3 C         142.5163  142.7671  162.9380 C.ar    1  UNL1        0.0253
      4 C         143.8396  142.3591  163.5144 C.ar    1  UNL1        0.1365
      5 C         145.0375  142.2262  162.6216 C.ar    1  UNL1        0.1541
      6 O         146.3610  141.8182  163.1979 O.3     1  UNL1       -0.5039
      7 C         144.9122  142.5014  161.1523 C.ar    1  UNL1        0.0527
      8 H         146.4393  141.6463  164.1157 H       1  UNL1        0.2923
      9 C         142.3152  144.0009  158.5919 C.3     1  UNL1        0.1122
     10 N         143.4635  143.1846  159.1068 N.pl3   1  UNL1       -0.3040
     11 C         144.4863  142.6434  158.1524 C.3     1  UNL1        0.1122
     12 N         143.9650  142.0840  164.9836 N.2     1  UNL1       -0.1435
     13 N         142.7426  141.7730  165.7954 N.2     1  UNL1       -0.1284
     14 C         142.8680  141.4978  167.2646 C.ar    1  UNL1        0.1838
     15 C         142.4021  140.1865  167.8245 C.ar    1  UNL1        0.0406
     16 C         142.5274  139.9113  169.2937 C.ar    1  UNL1        0.0048
     17 C         143.1187  140.9475  170.2030 C.ar    1  UNL1        0.0208
     18 C         143.5846  142.2588  169.6431 C.ar    1  UNL1        0.1006
     19 N         143.4592  142.5339  168.1739 N.ar    1  UNL1       -0.2236
@<TRIPOS>BOND
     1     9    10    1
     2    10    11    1
     3    10     1    1
     4     1     2   ar
     5     2     3   ar
     6     3     4   ar
     7     4    12    1
     8    12    13    2
     9    13    14    1
    10    14    15   ar
    11    15    16   ar
    12    16    17   ar
    13    17    18   ar
    14    18    19   ar
    15     4     5   ar
    16     5     6    1
    17     5     7   ar
    18     7     1   ar
    19    19    14   ar
    20     6     8    1
@<TRIPOS>MOLECULE
*****
 19 20 0 0 0
SMALL
GASTEIGER

@<TRIPOS>ATOM
      1 C         138.9383  138.8698  165.0775 C.ar    1  UNL1        0.0511
      2 C         138.1914  139.6825  164.0619 C.ar    1  UNL1        0.0163
      3 C         138.4720  139.4978  162.6000 C.ar    1  UNL1        0.0253
      4 C         139.4997  138.5005  162.1537 C.ar    1  UNL1        0.1365
      5 C         140.2466  137.6878  163.1694 C.ar    1  UNL1        0.1541
      6 O         141.2743  136.6903  162.7231 O.3     1  UNL1       -0.5039
      7 C         139.9659  137.8724  164.6312 C.ar    1  UNL1        0.0527
      8 H         141.4497  136.5750  161.8099 H       1  UNL1        0.2923
      9 C         139.5457  139.9343  167.3683 C.3     1  UNL1        0.1122
     10 N         138.6576  139.0545  166.5394 N.pl3   1  UNL1       -0.3040
     11 C         137.4889  138.3593  167.1724 C.3     1  UNL1        0.1122
     12 N         139.7803  138.3158  160.6918 N.2     1  UNL1       -0.1435
     13 N         141.1803  138.4601  160.1729 N.2     1  UNL1       -0.1284
     14 C         141.4609  138.2754  158.7110 C.ar    1  UNL1        0.1838
     15 C         140.3260  138.1993  157.7331 C.ar    1  UNL1        0.0406
     16 C         140.6066  138.0146  156.2712 C.ar    1  UNL1        0.0048
     17 C         142.0223  137.9061  155.7872 C.ar    1  UNL1        0.0208
     18 C         143.1572  137.9822  156.7650 C.ar    1  UNL1        0.1006
     19 N         142.8765  138.1669  158.2269 N.ar    1  UNL1       -0.2236
@<TRIPOS>BOND
     1     9    10    1
     2    10    11    1
     3    10     1    1
     4     1     2   ar
     5     2     3   ar
     6     3     4   ar
     7     4    12    1
     8    12    13    2
     9    13    14    1
    10    14    15   ar
    11    15    16   ar
    12    16    17   ar
    13    17    18   ar
    14    18    19   ar
    15     4     5   ar
    16     5     6    1
    17     5     7   ar
    18     7     1   ar
    19    19    14   ar
    20     6     8    1
@<TRIPOS>MOLECULE
*****
 19 20 0 0 0
SMALL
GASTEIGER

@<TRIPOS>ATOM
      1 C         140.9480  145.4644  155.5698 C.ar    1  UNL1        0.0511
      2 C         139.7641  144.5483  155.6652 C.ar    1  UNL1        0.0163
      3 C         139.3021  144.0567  157.0049 C.ar    1  UNL1        0.0253
      4 C         140.0240  144.4813  158.2493 C.ar    1  UNL1        0.1365
      5 C         141.2079  145.3974  158.1539 C.ar    1  UNL1        0.1541
      6 O         141.9299  145.8220  159.3984 O.3     1  UNL1       -0.5039
      7 C         141.6699  145.8889  156.8142 C.ar    1  UNL1        0.0527
      8 H         141.6413  145.5150  160.2353 H       1  UNL1        0.2923
      9 C         140.7838  147.1758  153.6219 C.3     1  UNL1        0.1122
     10 N         141.4099  145.9559  154.2300 N.pl3   1  UNL1       -0.3040
     11 C         142.4981  145.2276  153.4983 C.3     1  UNL1        0.1122
     12 N         139.5620  143.9898  159.5891 N.2     1  UNL1       -0.1435
     13 N         139.4633  144.9418  160.7440 N.2     1  UNL1       -0.1284
     14 C         139.0014  144.4502  162.0838 C.ar    1  UNL1        0.1838
     15 C         139.5970  145.0190  163.3375 C.ar    1  UNL1        0.0406
     16 C         139.1350  144.5275  164.6773 C.ar    1  UNL1        0.0048
     17 C         138.0774  143.4672  164.7633 C.ar    1  UNL1        0.0208
     18 C         137.4819  142.8985  163.5096 C.ar    1  UNL1        0.1006
     19 N         137.9438  143.3900  162.1698 N.ar    1  UNL1       -0.2236
@<TRIPOS>BOND
     1     9    10    1
     2    10    11    1
     3    10     1    1
     4     1     2   ar
     5     2     3   ar
     6     3     4   ar
     7     4    12    1
     8    12    13    2
     9    13    14    1
    10    14    15   ar
    11    15    16   ar
    12    16    17   ar
    13    17    18   ar
    14    18    19   ar
    15     4     5   ar
    16     5     6    1
    17     5     7   ar
    18     7     1   ar
    19    19    14   ar
    20     6     8    1
@<TRIPOS>MOLECULE
*****
 19 20 0 0 0
SMALL
GASTEIGER

@<TRIPOS>ATOM
      1 C         138.4500  139.3720  164.7100 C.ar    1  UNL1        0.0511
      2 C         138.6830  138.2050  163.7968 C.ar    1  UNL1        0.0163
      3 C         138.4682  138.3539  162.3198 C.ar    1  UNL1        0.0253
      4 C         138.0203  139.6697  161.7559 C.ar    1  UNL1        0.1365
      5 C         137.7873  140.8366  162.6691 C.ar    1  UNL1        0.1541
      6 O         137.3395  142.1526  162.1052 O.3     1  UNL1       -0.5039
      7 C         138.0021  140.6878  164.1461 C.ar    1  UNL1        0.0527
      8 H         137.2053  142.2456  161.1825 H       1  UNL1        0.2923
      9 C         137.6863  138.4410  167.0122 C.3     1  UNL1        0.1122
     10 N         138.6648  139.2231  166.1871 N.pl3   1  UNL1       -0.3040
     11 C         139.8581  139.8563  166.8390 C.3     1  UNL1        0.1122
     12 N         137.8055  139.8186  160.2788 N.2     1  UNL1       -0.1435
     13 N         138.2829  141.0525  159.5721 N.2     1  UNL1       -0.1284
     14 C         138.0681  141.2014  158.0951 C.ar    1  UNL1        0.1838
     15 C         137.8712  142.5640  157.4994 C.ar    1  UNL1        0.0406
     16 C         137.6564  142.7129  156.0224 C.ar    1  UNL1        0.0048
     17 C         137.6384  141.4992  155.1410 C.ar    1  UNL1        0.0208
     18 C         137.8353  140.1367  155.7367 C.ar    1  UNL1        0.1006
     19 N         138.0501  139.9878  157.2137 N.ar    1  UNL1       -0.2236
@<TRIPOS>BOND
     1     9    10    1
     2    10    11    1
     3    10     1    1
     4     1     2   ar
     5     2     3   ar
     6     3     4   ar
     7     4    12    1
     8    12    13    2
     9    13    14    1
    10    14    15   ar
    11    15    16   ar
    12    16    17   ar
    13    17    18   ar
    14    18    19   ar
    15     4     5   ar
    16     5     6    1
    17     5     7   ar
    18     7     1   ar
    19    19    14   ar
    20     6     8    1
@<TRIPOS>MOLECULE
*****
 19 20 0 0 0
SMALL
GASTEIGER

@<TRIPOS>ATOM
      1 C         144.3349  140.8438  161.7134 C.ar    1  UNL1        0.0511
      2 C         144.1982  139.4854  162.3348 C.ar    1  UNL1        0.0163
      3 C         143.6967  138.3331  161.5159 C.ar    1  UNL1        0.0253
      4 C         143.3318  138.5391  160.0756 C.ar    1  UNL1        0.1365
      5 C         143.4686  139.8974  159.4542 C.ar    1  UNL1        0.1541
      6 O         143.1037  140.1035  158.0139 O.3     1  UNL1       -0.5039
      7 C         143.9701  141.0498  160.2731 C.ar    1  UNL1        0.0527
      8 H         142.7904  139.3837  157.5023 H       1  UNL1        0.2923
      9 C         144.3540  143.3869  162.2444 C.3     1  UNL1        0.1122
     10 N         144.8365  141.9961  162.5323 N.pl3   1  UNL1       -0.3040
     11 C         145.8204  141.7577  163.6390 C.3     1  UNL1        0.1122
     12 N         142.8303  137.3868  159.2567 N.2     1  UNL1       -0.1435
     13 N         143.1661  137.3014  157.7973 N.2     1  UNL1       -0.1284
     14 C         142.6645  136.1491  156.9784 C.ar    1  UNL1        0.1838
     15 C         141.6051  136.3718  155.9401 C.ar    1  UNL1        0.0406
     16 C         141.1036  135.2195  155.1212 C.ar    1  UNL1        0.0048
     17 C         141.6614  133.8444  155.3407 C.ar    1  UNL1        0.0208
     18 C         142.7208  133.6218  156.3790 C.ar    1  UNL1        0.1006
     19 N         143.2224  134.7741  157.1978 N.ar    1  UNL1       -0.2236
@<TRIPOS>BOND
     1     9    10    1
     2    10    11    1
     3    10     1    1
     4     1     2   ar
     5     2     3   ar
     6     3     4   ar
     7     4    12    1
     8    12    13    2
     9    13    14    1
    10    14    15   ar
    11    15    16   ar
    12    16    17   ar
    13    17    18   ar
    14    18    19   ar
    15     4     5   ar
    16     5     6    1
    17     5     7   ar
    18     7     1   ar
    19    19    14   ar
    20     6     8    1
@<TRIPOS>MOLECULE
*****
 19 20 0 0 0
SMALL
GASTEIGER

@<TRIPOS>ATOM
      1 C         144.3233  141.0595  161.4079 C.ar    1  UNL1        0.0511
      2 C         144.0755  141.6399  160.0471 C.ar    1  UNL1        0.0163
      3 C         143.5792  140.7623  158.9365 C.ar    1  UNL1        0.0253
      4 C         143.3306  139.3044  159.1866 C.ar    1  UNL1        0.1365
      5 C         143.5784  138.7240  160.5473 C.ar    1  UNL1        0.1541
      6 O         143.3298  137.2660  160.7975 O.3     1  UNL1       -0.5039
      7 C         144.0747  139.6015  161.6580 C.ar    1  UNL1        0.0527
      8 H         143.0198  136.7178  160.1037 H       1  UNL1        0.2923
      9 C         145.6502  141.3523  163.6223 C.3     1  UNL1        0.1122
     10 N         144.8197  141.9370  162.5185 N.pl3   1  UNL1       -0.3040
     11 C         144.4854  143.3993  162.5255 C.3     1  UNL1        0.1122
     12 N         142.8343  138.4269  158.0759 N.2     1  UNL1       -0.1435
     13 N         143.2808  136.9973  157.9929 N.2     1  UNL1       -0.1284
     14 C         142.7845  136.1198  156.8822 C.ar    1  UNL1        0.1838
     15 C         143.6225  134.9722  156.4015 C.ar    1  UNL1        0.0406
     16 C         143.1261  134.0947  155.2909 C.ar    1  UNL1        0.0048
     17 C         141.7918  134.3647  154.6609 C.ar    1  UNL1        0.0208
     18 C         140.9539  135.5122  155.1416 C.ar    1  UNL1        0.1006
     19 N         141.4503  136.3898  156.2523 N.ar    1  UNL1       -0.2236
@<TRIPOS>BOND
     1     9    10    1
     2    10    11    1
     3    10     1    1
     4     1     2   ar
     5     2     3   ar
     6     3     4   ar
     7     4    12    1
     8    12    13    2
     9    13    14    1
    10    14    15   ar
    11    15    16   ar
    12    16    17   ar
    13    17    18   ar
    14    18    19   ar
    15     4     5   ar
    16     5     6    1
    17     5     7   ar
    18     7     1   ar
    19    19    14   ar
    20     6     8    1
@<TRIPOS>MOLECULE
*****
 19 20 0 0 0
SMALL
GASTEIGER

@<TRIPOS>ATOM
      1 C         141.1461  140.3853  168.4076 C.ar    1  UNL1        0.0511
      2 C         139.8374  140.2472  167.6877 C.ar    1  UNL1        0.0163
      3 C         139.6478  140.8909  166.3462 C.ar    1  UNL1        0.0253
      4 C         140.7668  141.6729  165.7247 C.ar    1  UNL1        0.1365
      5 C         142.0754  141.8110  166.4446 C.ar    1  UNL1        0.1541
      6 O         143.1945  142.5930  165.8230 O.3     1  UNL1       -0.5039
      7 C         142.2651  141.1672  167.7861 C.ar    1  UNL1        0.0527
      8 H         143.0761  142.9951  164.9850 H       1  UNL1        0.2923
      9 C         142.5504  138.9022  170.0132 C.3     1  UNL1        0.1122
     10 N         141.3357  139.7415  169.7491 N.pl3   1  UNL1       -0.3040
     11 C         140.3106  139.9371  170.8265 C.3     1  UNL1        0.1122
     12 N         140.5771  142.3166  164.3832 N.2     1  UNL1       -0.1435
     13 N         141.1262  143.6885  164.1253 N.2     1  UNL1       -0.1284
     14 C         140.9365  144.3323  162.7838 C.ar    1  UNL1        0.1838
     15 C         139.9819  145.4791  162.6305 C.ar    1  UNL1        0.0406
     16 C         139.7923  146.1229  161.2890 C.ar    1  UNL1        0.0048
     17 C         140.5573  145.6198  160.1008 C.ar    1  UNL1        0.0208
     18 C         141.5118  144.4730  160.2541 C.ar    1  UNL1        0.1006
     19 N         141.7015  143.8292  161.5956 N.ar    1  UNL1       -0.2236
@<TRIPOS>BOND
     1     9    10    1
     2    10    11    1
     3    10     1    1
     4     1     2   ar
     5     2     3   ar
     6     3     4   ar
     7     4    12    1
     8    12    13    2
     9    13    14    1
    10    14    15   ar
    11    15    16   ar
    12    16    17   ar
    13    17    18   ar
    14    18    19   ar
    15     4     5   ar
    16     5     6    1
    17     5     7   ar
    18     7     1   ar
    19    19    14   ar
    20     6     8    1
