@<TRIPOS>MOLECULE
*****
 32 36 0 0 0
SMALL
GASTEIGER

@<TRIPOS>ATOM
      1 O         143.0238  140.0966  156.7444 O.2     1  UNL1       -0.2681
      2 C         142.8785  138.8564  157.5756 C.2     1  UNL1        0.2701
      3 N         143.2190  138.8883  159.0360 N.am    1  UNL1       -0.2745
      4 C         143.0737  137.6482  159.8673 C.3     1  UNL1        0.0975
      5 C         143.4142  137.6801  161.3277 C.3     1  UNL1        0.0651
      6 C         143.8999  138.9522  161.9570 C.3     1  UNL1        0.1693
      7 C         144.0452  140.1923  161.1258 C.3     1  UNL1        0.0651
      8 C         143.7048  140.1604  159.6653 C.3     1  UNL1        0.0975
      9 C         142.3928  137.5844  156.9463 C.ar    1  UNL1        0.1763
     10 C         143.2443  136.4133  156.5547 C.ar    1  UNL1        0.0672
     11 C         142.3480  135.3652  155.9645 C.ar    1  UNL1        0.1770
     12 O         140.9425  135.8887  155.9914 O.2     1  UNL1       -0.3533
     13 N         140.9702  137.2602  156.5982 N.ar    1  UNL1       -0.0723
     14 C         142.7811  134.0284  155.4396 C.ar    1  UNL1        0.0372
     15 C         142.2095  133.5061  154.1550 C.ar    1  UNL1        0.0031
     16 C         142.6426  132.1693  153.6302 C.ar    1  UNL1        0.0001
     17 C         143.6474  131.3550  154.3900 C.ar    1  UNL1        0.0000
     18 C         144.2190  131.8773  155.6746 C.ar    1  UNL1        0.0001
     19 C         143.7858  133.2141  156.1995 C.ar    1  UNL1        0.0031
     20 O         144.2404  138.9840  163.4176 O.3     1  UNL1       -0.4791
     21 C         143.1648  139.2322  164.4332 C.ar    1  UNL1        0.1384
     22 C         143.4520  139.0377  165.8926 C.ar    1  UNL1        0.0366
     23 C         142.3764  139.2859  166.9081 C.ar    1  UNL1        0.0002
     24 C         141.0136  139.7285  166.4643 C.ar    1  UNL1       -0.0059
     25 C         140.7265  139.9230  165.0050 C.ar    1  UNL1        0.0002
     26 C         141.8021  139.6748  163.9894 C.ar    1  UNL1        0.0366
     27 C         139.9379  139.9767  167.4799 C.3     1  UNL1        0.0991
     28 N         140.0311  141.1599  168.3972 N.3     1  UNL1       -0.2690
     29 C         140.5669  142.5141  168.0379 C.3     1  UNL1        0.0724
     30 C         140.4718  143.3877  169.2535 C.3     1  UNL1        0.0188
     31 C         139.8772  142.5735  170.3641 C.3     1  UNL1        0.0188
     32 C         139.6048  141.1967  169.8350 C.3     1  UNL1        0.0724
@<TRIPOS>BOND
     1     1     2    2
     2     2     9    1
     3     9    10   ar
     4    10    11   ar
     5    11    14    1
     6    14    15   ar
     7    15    16   ar
     8    16    17   ar
     9    17    18   ar
    10    18    19   ar
    11    11    12   ar
    12    12    13   ar
    13     2     3   am
    14     3     4    1
    15     4     5    1
    16     5     6    1
    17     6    20    1
    18    20    21    1
    19    21    22   ar
    20    22    23   ar
    21    23    24   ar
    22    24    27    1
    23    27    28    1
    24    28    29    1
    25    29    30    1
    26    30    31    1
    27    31    32    1
    28    24    25   ar
    29    25    26   ar
    30     6     7    1
    31     7     8    1
    32    13     9   ar
    33     8     3    1
    34    19    14   ar
    35    26    21   ar
    36    32    28    1
@<TRIPOS>MOLECULE
*****
 32 36 0 0 0
SMALL
GASTEIGER

@<TRIPOS>ATOM
      1 O         137.3228  139.3457  160.9556 O.2     1  UNL1       -0.2681
      2 C         138.6746  138.9618  161.4803 C.2     1  UNL1        0.2701
      3 N         139.7886  138.6496  160.5256 N.am    1  UNL1       -0.2745
      4 C         141.1404  138.2657  161.0502 C.3     1  UNL1        0.0975
      5 C         142.2544  137.9535  160.0955 C.3     1  UNL1        0.0651
      6 C         142.0166  138.0253  158.6162 C.3     1  UNL1        0.1693
      7 C         140.6648  138.4092  158.0916 C.3     1  UNL1        0.0651
      8 C         139.5508  138.7214  159.0462 C.3     1  UNL1        0.0975
      9 C         138.9124  138.8901  162.9596 C.ar    1  UNL1        0.1763
     10 C         139.1869  140.0534  163.8659 C.ar    1  UNL1        0.0672
     11 C         139.3615  139.5248  165.2587 C.ar    1  UNL1        0.1770
     12 O         139.1949  138.0347  165.2132 O.2     1  UNL1       -0.3533
     13 N         138.9173  137.6424  163.7923 N.ar    1  UNL1       -0.0723
     14 C         139.6518  140.3426  166.4822 C.ar    1  UNL1        0.0372
     15 C         139.3042  139.8095  167.8405 C.ar    1  UNL1        0.0031
     16 C         139.5945  140.6273  169.0640 C.ar    1  UNL1        0.0001
     17 C         140.2324  141.9781  168.9292 C.ar    1  UNL1        0.0000
     18 C         140.5801  142.5112  167.5709 C.ar    1  UNL1        0.0001
     19 C         140.2898  141.6934  166.3474 C.ar    1  UNL1        0.0031
     20 O         143.1308  137.7130  157.6615 O.3     1  UNL1       -0.4791
     21 C         143.0869  136.4570  156.8426 C.ar    1  UNL1        0.1384
     22 C         143.2829  135.1243  157.5024 C.ar    1  UNL1        0.0366
     23 C         143.2390  133.8684  156.6835 C.ar    1  UNL1        0.0002
     24 C         142.9992  133.9452  155.2048 C.ar    1  UNL1       -0.0059
     25 C         142.8032  135.2778  154.5450 C.ar    1  UNL1        0.0002
     26 C         142.8471  136.5338  155.3639 C.ar    1  UNL1        0.0366
     27 C         142.9553  132.6891  154.3859 C.3     1  UNL1        0.0991
     28 N         143.1649  131.3573  155.0435 N.3     1  UNL1       -0.2690
     29 C         142.0896  130.4615  155.5831 C.3     1  UNL1        0.0724
     30 C         142.7467  129.2381  156.1501 C.3     1  UNL1        0.0188
     31 C         144.2281  129.3778  155.9608 C.3     1  UNL1        0.0188
     32 C         144.4866  130.6875  155.2769 C.3     1  UNL1        0.0724
@<TRIPOS>BOND
     1     1     2    2
     2     2     9    1
     3     9    10   ar
     4    10    11   ar
     5    11    14    1
     6    14    15   ar
     7    15    16   ar
     8    16    17   ar
     9    17    18   ar
    10    18    19   ar
    11    11    12   ar
    12    12    13   ar
    13     2     3   am
    14     3     4    1
    15     4     5    1
    16     5     6    1
    17     6    20    1
    18    20    21    1
    19    21    22   ar
    20    22    23   ar
    21    23    24   ar
    22    24    27    1
    23    27    28    1
    24    28    29    1
    25    29    30    1
    26    30    31    1
    27    31    32    1
    28    24    25   ar
    29    25    26   ar
    30     6     7    1
    31     7     8    1
    32    13     9   ar
    33     8     3    1
    34    19    14   ar
    35    26    21   ar
    36    32    28    1
@<TRIPOS>MOLECULE
*****
 32 36 0 0 0
SMALL
GASTEIGER

@<TRIPOS>ATOM
      1 O         139.7314  142.3685  157.2718 O.2     1  UNL1       -0.2681
      2 C         139.3246  141.1040  157.9686 C.2     1  UNL1        0.2701
      3 N         138.8036  141.1567  159.3743 N.am    1  UNL1       -0.2745
      4 C         138.3967  139.8922  160.0711 C.3     1  UNL1        0.0975
      5 C         137.8758  139.9448  161.4767 C.3     1  UNL1        0.0651
      6 C         137.7617  141.2619  162.1855 C.3     1  UNL1        0.1693
      7 C         138.1686  142.5264  161.4887 C.3     1  UNL1        0.0651
      8 C         138.6895  142.4737  160.0830 C.3     1  UNL1        0.0975
      9 C         139.4386  139.7870  157.2598 C.ar    1  UNL1        0.1763
     10 C         140.6490  138.9014  157.2344 C.ar    1  UNL1        0.0672
     11 C         140.3208  137.6914  156.4109 C.ar    1  UNL1        0.1770
     12 O         138.9075  137.8291  155.9274 O.2     1  UNL1       -0.3533
     13 N         138.3623  139.1243  156.4521 N.ar    1  UNL1       -0.0723
     14 C         141.2438  136.5448  156.1217 C.ar    1  UNL1        0.0372
     15 C         140.8568  135.5073  155.1098 C.ar    1  UNL1        0.0031
     16 C         141.7798  134.3608  154.8206 C.ar    1  UNL1        0.0001
     17 C         143.0897  134.2519  155.5433 C.ar    1  UNL1        0.0000
     18 C         143.4767  135.2894  156.5551 C.ar    1  UNL1        0.0001
     19 C         142.5537  136.4358  156.8443 C.ar    1  UNL1        0.0031
     20 O         137.2407  141.3145  163.5912 O.3     1  UNL1       -0.4791
     21 C         138.1511  140.9987  164.7408 C.ar    1  UNL1        0.1384
     22 C         139.1883  141.9931  165.1712 C.ar    1  UNL1        0.0366
     23 C         140.0986  141.6772  166.3208 C.ar    1  UNL1        0.0002
     24 C         139.9717  140.3669  167.0399 C.ar    1  UNL1       -0.0059
     25 C         138.9345  139.3726  166.6094 C.ar    1  UNL1        0.0002
     26 C         138.0242  139.6884  165.4599 C.ar    1  UNL1        0.0366
     27 C         140.8821  140.0510  168.1895 C.3     1  UNL1        0.0991
     28 N         141.6096  141.1564  168.8957 N.3     1  UNL1       -0.2690
     29 C         140.9777  142.2639  169.6859 C.3     1  UNL1        0.0724
     30 C         142.0743  143.1404  170.2143 C.3     1  UNL1        0.0188
     31 C         143.3839  142.5746  169.7507 C.3     1  UNL1        0.0188
     32 C         143.0968  141.3485  168.9358 C.3     1  UNL1        0.0724
@<TRIPOS>BOND
     1     1     2    2
     2     2     9    1
     3     9    10   ar
     4    10    11   ar
     5    11    14    1
     6    14    15   ar
     7    15    16   ar
     8    16    17   ar
     9    17    18   ar
    10    18    19   ar
    11    11    12   ar
    12    12    13   ar
    13     2     3   am
    14     3     4    1
    15     4     5    1
    16     5     6    1
    17     6    20    1
    18    20    21    1
    19    21    22   ar
    20    22    23   ar
    21    23    24   ar
    22    24    27    1
    23    27    28    1
    24    28    29    1
    25    29    30    1
    26    30    31    1
    27    31    32    1
    28    24    25   ar
    29    25    26   ar
    30     6     7    1
    31     7     8    1
    32    13     9   ar
    33     8     3    1
    34    19    14   ar
    35    26    21   ar
    36    32    28    1
@<TRIPOS>MOLECULE
*****
 32 36 0 0 0
SMALL
GASTEIGER

@<TRIPOS>ATOM
      1 O         143.8725  139.4432  158.6764 O.2     1  UNL1       -0.2681
      2 C         142.5319  138.7705  158.6787 C.2     1  UNL1        0.2701
      3 N         141.5067  139.1449  159.7078 N.am    1  UNL1       -0.2745
      4 C         140.1660  138.4721  159.7101 C.3     1  UNL1        0.0975
      5 C         139.1409  138.8465  160.7391 C.3     1  UNL1        0.0651
      6 C         139.4564  139.8936  161.7658 C.3     1  UNL1        0.1693
      7 C         140.7971  140.5664  161.7634 C.3     1  UNL1        0.0651
      8 C         141.8222  140.1920  160.7344 C.3     1  UNL1        0.0975
      9 C         142.2163  137.7234  157.6521 C.ar    1  UNL1        0.1763
     10 C         142.7874  136.3372  157.6021 C.ar    1  UNL1        0.0672
     11 C         142.1983  135.6357  156.4143 C.ar    1  UNL1        0.1770
     12 O         141.2632  136.5883  155.7301 O.2     1  UNL1       -0.3533
     13 N         141.2743  137.8786  156.4951 N.ar    1  UNL1       -0.0723
     14 C         142.4927  134.2286  155.9859 C.ar    1  UNL1        0.0372
     15 C         143.8621  133.6525  156.1930 C.ar    1  UNL1        0.0031
     16 C         144.1564  132.2455  155.7645 C.ar    1  UNL1        0.0001
     17 C         143.0814  131.4146  155.1289 C.ar    1  UNL1        0.0000
     18 C         141.7120  131.9907  154.9218 C.ar    1  UNL1        0.0001
     19 C         141.4177  133.3978  155.3503 C.ar    1  UNL1        0.0031
     20 O         138.4312  140.2680  162.7948 O.3     1  UNL1       -0.4791
     21 C         138.8016  140.2927  164.2482 C.ar    1  UNL1        0.1384
     22 C         138.5794  139.0779  165.0996 C.ar    1  UNL1        0.0366
     23 C         138.9498  139.1027  166.5528 C.ar    1  UNL1        0.0002
     24 C         139.5424  140.3422  167.1547 C.ar    1  UNL1       -0.0059
     25 C         139.7647  141.5570  166.3034 C.ar    1  UNL1        0.0002
     26 C         139.3942  141.5323  164.8501 C.ar    1  UNL1        0.0366
     27 C         139.9129  140.3670  168.6081 C.3     1  UNL1        0.0991
     28 N         141.0817  141.1858  169.0704 N.3     1  UNL1       -0.2690
     29 C         142.5276  140.8063  168.9474 C.3     1  UNL1        0.0724
     30 C         143.3493  141.9138  169.5377 C.3     1  UNL1        0.0188
     31 C         142.4111  142.9777  170.0255 C.3     1  UNL1        0.0188
     32 C         141.0096  142.5278  169.7367 C.3     1  UNL1        0.0724
@<TRIPOS>BOND
     1     1     2    2
     2     2     9    1
     3     9    10   ar
     4    10    11   ar
     5    11    14    1
     6    14    15   ar
     7    15    16   ar
     8    16    17   ar
     9    17    18   ar
    10    18    19   ar
    11    11    12   ar
    12    12    13   ar
    13     2     3   am
    14     3     4    1
    15     4     5    1
    16     5     6    1
    17     6    20    1
    18    20    21    1
    19    21    22   ar
    20    22    23   ar
    21    23    24   ar
    22    24    27    1
    23    27    28    1
    24    28    29    1
    25    29    30    1
    26    30    31    1
    27    31    32    1
    28    24    25   ar
    29    25    26   ar
    30     6     7    1
    31     7     8    1
    32    13     9   ar
    33     8     3    1
    34    19    14   ar
    35    26    21   ar
    36    32    28    1
@<TRIPOS>MOLECULE
*****
 32 36 0 0 0
SMALL
GASTEIGER

@<TRIPOS>ATOM
      1 O         142.4492  140.1172  156.6534 O.2     1  UNL1       -0.2681
      2 C         141.6172  139.0565  157.3109 C.2     1  UNL1        0.2701
      3 N         140.6935  139.4180  158.4361 N.am    1  UNL1       -0.2745
      4 C         139.8614  138.3572  159.0937 C.3     1  UNL1        0.0975
      5 C         138.9377  138.7187  160.2188 C.3     1  UNL1        0.0651
      6 C         138.8460  140.1410  160.6864 C.3     1  UNL1        0.1693
      7 C         139.6781  141.2018  160.0288 C.3     1  UNL1        0.0651
      8 C         140.6018  140.8403  158.9037 C.3     1  UNL1        0.0975
      9 C         141.7088  137.6341  156.8433 C.ar    1  UNL1        0.1763
     10 C         142.7925  136.6585  157.1951 C.ar    1  UNL1        0.0672
     11 C         142.4864  135.3591  156.5111 C.ar    1  UNL1        0.1770
     12 O         141.2135  135.5317  155.7365 O.2     1  UNL1       -0.3533
     13 N         140.7329  136.9378  155.9418 N.ar    1  UNL1       -0.0723
     14 C         143.3087  134.1070  156.5881 C.ar    1  UNL1        0.0372
     15 C         143.3571  133.1684  155.4190 C.ar    1  UNL1        0.0031
     16 C         144.1794  131.9163  155.4961 C.ar    1  UNL1        0.0001
     17 C         144.9534  131.6028  156.7422 C.ar    1  UNL1        0.0000
     18 C         144.9050  132.5413  157.9112 C.ar    1  UNL1        0.0001
     19 C         144.0827  133.7934  157.8342 C.ar    1  UNL1        0.0031
     20 O         137.9222  140.5026  161.8116 O.3     1  UNL1       -0.4791
     21 C         138.3894  140.3866  163.2323 C.ar    1  UNL1        0.1384
     22 C         138.6356  141.6236  164.0442 C.ar    1  UNL1        0.0366
     23 C         139.1028  141.5075  165.4648 C.ar    1  UNL1        0.0002
     24 C         139.3237  140.1545  166.0735 C.ar    1  UNL1       -0.0059
     25 C         139.0775  138.9176  165.2617 C.ar    1  UNL1        0.0002
     26 C         138.6104  139.0336  163.8410 C.ar    1  UNL1        0.0366
     27 C         139.7910  140.0384  167.4943 C.3     1  UNL1        0.0991
     28 N         140.8251  140.9873  168.0236 N.3     1  UNL1       -0.2690
     29 C         142.2639  141.0474  167.6035 C.3     1  UNL1        0.0724
     30 C         142.9300  142.1399  168.3861 C.3     1  UNL1        0.0188
     31 C         141.9030  142.7551  169.2899 C.3     1  UNL1        0.0188
     32 C         140.6021  142.0428  169.0659 C.3     1  UNL1        0.0724
@<TRIPOS>BOND
     1     1     2    2
     2     2     9    1
     3     9    10   ar
     4    10    11   ar
     5    11    14    1
     6    14    15   ar
     7    15    16   ar
     8    16    17   ar
     9    17    18   ar
    10    18    19   ar
    11    11    12   ar
    12    12    13   ar
    13     2     3   am
    14     3     4    1
    15     4     5    1
    16     5     6    1
    17     6    20    1
    18    20    21    1
    19    21    22   ar
    20    22    23   ar
    21    23    24   ar
    22    24    27    1
    23    27    28    1
    24    28    29    1
    25    29    30    1
    26    30    31    1
    27    31    32    1
    28    24    25   ar
    29    25    26   ar
    30     6     7    1
    31     7     8    1
    32    13     9   ar
    33     8     3    1
    34    19    14   ar
    35    26    21   ar
    36    32    28    1
@<TRIPOS>MOLECULE
*****
 32 36 0 0 0
SMALL
GASTEIGER

@<TRIPOS>ATOM
      1 O         138.3749  138.9194  162.5246 O.2     1  UNL1       -0.2681
      2 C         139.8551  138.7027  162.4142 C.2     1  UNL1        0.2701
      3 N         140.4874  138.5165  161.0668 N.am    1  UNL1       -0.2745
      4 C         141.9675  138.2998  160.9564 C.3     1  UNL1        0.0975
      5 C         142.5998  138.1137  159.6089 C.3     1  UNL1        0.0651
      6 C         141.7519  138.1443  158.3719 C.3     1  UNL1        0.1693
      7 C         140.2717  138.3610  158.4823 C.3     1  UNL1        0.0651
      8 C         139.6395  138.5471  159.8298 C.3     1  UNL1        0.0975
      9 C         140.7030  138.6721  163.6512 C.ar    1  UNL1        0.1763
     10 C         140.8930  139.8031  164.6181 C.ar    1  UNL1        0.0672
     11 C         141.8171  139.3351  165.7029 C.ar    1  UNL1        0.1770
     12 O         142.1983  137.9149  165.4066 O.2     1  UNL1       -0.3533
     13 N         141.5097  137.5051  164.1385 N.ar    1  UNL1       -0.0723
     14 C         142.2791  140.1452  166.8779 C.ar    1  UNL1        0.0372
     15 C         142.6623  141.5835  166.6931 C.ar    1  UNL1        0.0031
     16 C         143.1242  142.3935  167.8681 C.ar    1  UNL1        0.0001
     17 C         143.2028  141.7651  169.2279 C.ar    1  UNL1        0.0000
     18 C         142.8196  140.3267  169.4127 C.ar    1  UNL1        0.0001
     19 C         142.3577  139.5168  168.2377 C.ar    1  UNL1        0.0031
     20 O         142.3842  137.9582  157.0244 O.3     1  UNL1       -0.4791
     21 C         142.4138  136.5987  156.3912 C.ar    1  UNL1        0.1384
     22 C         143.6767  135.7895  156.4108 C.ar    1  UNL1        0.0366
     23 C         143.7062  134.4301  155.7775 C.ar    1  UNL1        0.0002
     24 C         142.4729  133.8799  155.1247 C.ar    1  UNL1       -0.0059
     25 C         141.2101  134.6891  155.1051 C.ar    1  UNL1        0.0002
     26 C         141.1805  136.0485  155.7383 C.ar    1  UNL1        0.0366
     27 C         142.5024  132.5204  154.4914 C.3     1  UNL1        0.0991
     28 N         143.2444  131.3992  155.1564 N.3     1  UNL1       -0.2690
     29 C         142.9832  130.8631  156.5328 C.3     1  UNL1        0.0724
     30 C         143.9552  129.7498  156.7889 C.3     1  UNL1        0.0188
     31 C         144.8173  129.5978  155.5708 C.3     1  UNL1        0.0188
     32 C         144.3780  130.6171  154.5619 C.3     1  UNL1        0.0724
@<TRIPOS>BOND
     1     1     2    2
     2     2     9    1
     3     9    10   ar
     4    10    11   ar
     5    11    14    1
     6    14    15   ar
     7    15    16   ar
     8    16    17   ar
     9    17    18   ar
    10    18    19   ar
    11    11    12   ar
    12    12    13   ar
    13     2     3   am
    14     3     4    1
    15     4     5    1
    16     5     6    1
    17     6    20    1
    18    20    21    1
    19    21    22   ar
    20    22    23   ar
    21    23    24   ar
    22    24    27    1
    23    27    28    1
    24    28    29    1
    25    29    30    1
    26    30    31    1
    27    31    32    1
    28    24    25   ar
    29    25    26   ar
    30     6     7    1
    31     7     8    1
    32    13     9   ar
    33     8     3    1
    34    19    14   ar
    35    26    21   ar
    36    32    28    1
@<TRIPOS>MOLECULE
*****
 32 36 0 0 0
SMALL
GASTEIGER

@<TRIPOS>ATOM
      1 O         140.7651  139.9411  156.8996 O.2     1  UNL1       -0.2681
      2 C         142.0007  139.4387  157.5858 C.2     1  UNL1        0.2701
      3 N         142.4565  140.0711  158.8673 N.am    1  UNL1       -0.2745
      4 C         143.6921  139.5687  159.5536 C.3     1  UNL1        0.0975
      5 C         144.1479  140.2011  160.8351 C.3     1  UNL1        0.0651
      6 C         143.3682  141.3358  161.4303 C.3     1  UNL1        0.1693
      7 C         142.1326  141.8382  160.7441 C.3     1  UNL1        0.0651
      8 C         141.6767  141.2058  159.4626 C.3     1  UNL1        0.0975
      9 C         142.7804  138.3039  156.9905 C.ar    1  UNL1        0.1763
     10 C         142.4285  136.8487  157.0820 C.ar    1  UNL1        0.0672
     11 C         143.4795  136.0706  156.3473 C.ar    1  UNL1        0.1770
     12 O         144.4811  137.0450  155.8017 O.2     1  UNL1       -0.3533
     13 N         144.0490  138.4253  156.1993 N.ar    1  UNL1       -0.0723
     14 C         143.5217  134.5798  156.1863 C.ar    1  UNL1        0.0372
     15 C         143.0317  133.9483  154.9171 C.ar    1  UNL1        0.0031
     16 C         143.0738  132.4576  154.7562 C.ar    1  UNL1        0.0001
     17 C         143.6061  131.5984  155.8645 C.ar    1  UNL1        0.0000
     18 C         144.0962  132.2298  157.1337 C.ar    1  UNL1        0.0001
     19 C         144.0540  133.7205  157.2946 C.ar    1  UNL1        0.0031
     20 O         143.8241  141.9682  162.7119 O.3     1  UNL1       -0.4791
     21 C         143.4466  141.3538  164.0272 C.ar    1  UNL1        0.1384
     22 C         142.6510  142.1442  165.0234 C.ar    1  UNL1        0.0366
     23 C         142.2735  141.5297  166.3387 C.ar    1  UNL1        0.0002
     24 C         142.6917  140.1250  166.6578 C.ar    1  UNL1       -0.0059
     25 C         143.4872  139.3347  165.6616 C.ar    1  UNL1        0.0002
     26 C         143.8647  139.9491  164.3463 C.ar    1  UNL1        0.0366
     27 C         142.3142  139.5105  167.9731 C.3     1  UNL1        0.0991
     28 N         141.3497  140.2149  168.8807 N.3     1  UNL1       -0.2690
     29 C         141.7097  141.1744  169.9759 C.3     1  UNL1        0.0724
     30 C         140.4384  141.6359  170.6244 C.3     1  UNL1        0.0188
     31 C         139.2925  140.9616  169.9299 C.3     1  UNL1        0.0188
     32 C         139.8557  140.0834  168.8522 C.3     1  UNL1        0.0724
@<TRIPOS>BOND
     1     1     2    2
     2     2     9    1
     3     9    10   ar
     4    10    11   ar
     5    11    14    1
     6    14    15   ar
     7    15    16   ar
     8    16    17   ar
     9    17    18   ar
    10    18    19   ar
    11    11    12   ar
    12    12    13   ar
    13     2     3   am
    14     3     4    1
    15     4     5    1
    16     5     6    1
    17     6    20    1
    18    20    21    1
    19    21    22   ar
    20    22    23   ar
    21    23    24   ar
    22    24    27    1
    23    27    28    1
    24    28    29    1
    25    29    30    1
    26    30    31    1
    27    31    32    1
    28    24    25   ar
    29    25    26   ar
    30     6     7    1
    31     7     8    1
    32    13     9   ar
    33     8     3    1
    34    19    14   ar
    35    26    21   ar
    36    32    28    1
@<TRIPOS>MOLECULE
*****
 32 36 0 0 0
SMALL
GASTEIGER

@<TRIPOS>ATOM
      1 O         137.3072  140.2408  157.7398 O.2     1  UNL1       -0.2681
      2 C         138.6526  140.5224  158.3403 C.2     1  UNL1        0.2701
      3 N         139.8082  139.6106  158.0521 N.am    1  UNL1       -0.2745
      4 C         141.1536  139.8922  158.6526 C.3     1  UNL1        0.0975
      5 C         142.3092  138.9803  158.3645 C.3     1  UNL1        0.0651
      6 C         142.1194  137.7869  157.4758 C.3     1  UNL1        0.1693
      7 C         140.7740  137.5053  156.8753 C.3     1  UNL1        0.0651
      8 C         139.6184  138.4171  157.1634 C.3     1  UNL1        0.0975
      9 C         138.8424  141.7159  159.2290 C.ar    1  UNL1        0.1763
     10 C         138.7584  141.7222  160.7266 C.ar    1  UNL1        0.0672
     11 C         139.0136  143.1227  161.1992 C.ar    1  UNL1        0.1770
     12 O         139.2553  143.9820  159.9937 O.2     1  UNL1       -0.3533
     13 N         139.1495  143.1125  158.7760 N.ar    1  UNL1       -0.0723
     14 C         139.0251  143.5832  162.6268 C.ar    1  UNL1        0.0372
     15 C         140.3255  143.7106  163.3633 C.ar    1  UNL1        0.0031
     16 C         140.3370  144.1710  164.7908 C.ar    1  UNL1        0.0001
     17 C         139.0479  144.5041  165.4818 C.ar    1  UNL1        0.0000
     18 C         137.7475  144.3768  164.7453 C.ar    1  UNL1        0.0001
     19 C         137.7360  143.9163  163.3178 C.ar    1  UNL1        0.0031
     20 O         143.2751  136.8750  157.1876 O.3     1  UNL1       -0.4791
     21 C         143.0721  135.6496  156.3467 C.ar    1  UNL1        0.1384
     22 C         142.8784  135.7805  154.8650 C.ar    1  UNL1        0.0366
     23 C         142.6753  134.5551  154.0241 C.ar    1  UNL1        0.0002
     24 C         142.6660  133.1989  154.6648 C.ar    1  UNL1       -0.0059
     25 C         142.8597  133.0680  156.1464 C.ar    1  UNL1        0.0002
     26 C         143.0628  134.2934  156.9874 C.ar    1  UNL1        0.0366
     27 C         142.4629  131.9734  153.8239 C.3     1  UNL1        0.0991
     28 N         141.6469  130.8298  154.3496 N.3     1  UNL1       -0.2690
     29 C         140.1490  130.7543  154.3757 C.3     1  UNL1        0.0724
     30 C         139.7618  129.4388  154.9837 C.3     1  UNL1        0.0188
     31 C         141.0204  128.7014  155.3333 C.3     1  UNL1        0.0188
     32 C         142.1854  129.5610  154.9414 C.3     1  UNL1        0.0724
@<TRIPOS>BOND
     1     1     2    2
     2     2     9    1
     3     9    10   ar
     4    10    11   ar
     5    11    14    1
     6    14    15   ar
     7    15    16   ar
     8    16    17   ar
     9    17    18   ar
    10    18    19   ar
    11    11    12   ar
    12    12    13   ar
    13     2     3   am
    14     3     4    1
    15     4     5    1
    16     5     6    1
    17     6    20    1
    18    20    21    1
    19    21    22   ar
    20    22    23   ar
    21    23    24   ar
    22    24    27    1
    23    27    28    1
    24    28    29    1
    25    29    30    1
    26    30    31    1
    27    31    32    1
    28    24    25   ar
    29    25    26   ar
    30     6     7    1
    31     7     8    1
    32    13     9   ar
    33     8     3    1
    34    19    14   ar
    35    26    21   ar
    36    32    28    1
@<TRIPOS>MOLECULE
*****
 32 36 0 0 0
SMALL
GASTEIGER

@<TRIPOS>ATOM
      1 O         142.1306  141.5351  155.1969 O.2     1  UNL1       -0.2681
      2 C         142.8995  140.8713  156.3006 C.2     1  UNL1        0.2701
      3 N         143.0972  141.5795  157.6080 N.am    1  UNL1       -0.2745
      4 C         143.8661  140.9157  158.7117 C.3     1  UNL1        0.0975
      5 C         144.0639  141.6238  160.0191 C.3     1  UNL1        0.0651
      6 C         143.4927  142.9958  160.2228 C.3     1  UNL1        0.1693
      7 C         142.7238  143.6596  159.1191 C.3     1  UNL1        0.0651
      8 C         142.5261  142.9514  157.8117 C.3     1  UNL1        0.0975
      9 C         143.4706  139.4993  156.0969 C.ar    1  UNL1        0.1763
     10 C         142.6983  138.2134  156.0999 C.ar    1  UNL1        0.0672
     11 C         143.6647  137.0917  155.8593 C.ar    1  UNL1        0.1770
     12 O         145.0343  137.6844  155.7076 O.2     1  UNL1       -0.3533
     13 N         144.9144  139.1723  155.8544 N.ar    1  UNL1       -0.0723
     14 C         143.3218  135.6333  155.7837 C.ar    1  UNL1        0.0372
     15 C         142.8872  135.0317  154.4802 C.ar    1  UNL1        0.0031
     16 C         142.5443  133.5734  154.4046 C.ar    1  UNL1        0.0001
     17 C         142.6360  132.7168  155.6325 C.ar    1  UNL1        0.0000
     18 C         143.0706  133.3184  156.9360 C.ar    1  UNL1        0.0001
     19 C         143.4135  134.7767  157.0116 C.ar    1  UNL1        0.0031
     20 O         143.6905  143.7040  161.5303 O.3     1  UNL1       -0.4791
     21 C         143.2004  143.0797  162.8031 C.ar    1  UNL1        0.1384
     22 C         141.7283  142.9166  163.0402 C.ar    1  UNL1        0.0366
     23 C         141.2383  142.2922  164.3130 C.ar    1  UNL1        0.0002
     24 C         142.2204  141.8309  165.3487 C.ar    1  UNL1       -0.0059
     25 C         143.6925  141.9940  165.1116 C.ar    1  UNL1        0.0002
     26 C         144.1825  142.6184  163.8388 C.ar    1  UNL1        0.0366
     27 C         141.7304  141.2065  166.6215 C.3     1  UNL1        0.0991
     28 N         141.8001  141.9738  167.9086 N.3     1  UNL1       -0.2690
     29 C         143.0058  142.1084  168.7906 C.3     1  UNL1        0.0724
     30 C         142.6272  142.9589  169.9667 C.3     1  UNL1        0.0188
     31 C         141.1874  143.3500  169.8115 C.3     1  UNL1        0.0188
     32 C         140.6762  142.7412  168.5396 C.3     1  UNL1        0.0724
@<TRIPOS>BOND
     1     1     2    2
     2     2     9    1
     3     9    10   ar
     4    10    11   ar
     5    11    14    1
     6    14    15   ar
     7    15    16   ar
     8    16    17   ar
     9    17    18   ar
    10    18    19   ar
    11    11    12   ar
    12    12    13   ar
    13     2     3   am
    14     3     4    1
    15     4     5    1
    16     5     6    1
    17     6    20    1
    18    20    21    1
    19    21    22   ar
    20    22    23   ar
    21    23    24   ar
    22    24    27    1
    23    27    28    1
    24    28    29    1
    25    29    30    1
    26    30    31    1
    27    31    32    1
    28    24    25   ar
    29    25    26   ar
    30     6     7    1
    31     7     8    1
    32    13     9   ar
    33     8     3    1
    34    19    14   ar
    35    26    21   ar
    36    32    28    1
