@<TRIPOS>MOLECULE
*****
 29 31 0 0 0
SMALL
GASTEIGER

@<TRIPOS>ATOM
      1 C         139.9466  140.6422  168.2136 C.ar    1  UNL1        0.0327
      2 C         139.9071  140.6159  166.7144 C.ar    1  UNL1        0.0044
      3 C         138.8779  139.7861  166.0057 C.ar    1  UNL1        0.0193
      4 C         137.8883  138.9825  166.7962 C.ar    1  UNL1        0.1002
      5 N         137.9279  139.0088  168.2954 N.ar    1  UNL1       -0.2296
      6 C         138.9570  139.8386  169.0041 C.ar    1  UNL1        0.1254
      7 N         138.9965  139.8648  170.5034 N.pl3   1  UNL1       -0.3426
      8 H         138.3470  139.3374  171.0223 H       1  UNL1        0.1437
      9 H         139.6719  140.4095  170.9686 H       1  UNL1        0.1437
     10 C         143.0340  143.1316  170.3398 C.ar    1  UNL1        0.2250
     11 C         143.4212  141.8178  169.7284 C.ar    1  UNL1        0.0577
     12 C         142.3921  140.9880  169.0197 C.ar    1  UNL1        0.0064
     13 C         140.9757  141.4720  168.9223 C.ar    1  UNL1        0.0221
     14 C         140.5885  142.7858  169.5337 C.ar    1  UNL1        0.1021
     15 N         141.6176  143.6157  170.2424 N.ar    1  UNL1       -0.2101
     16 C         145.5165  143.8001  170.7144 C.3     1  UNL1        0.2542
     17 O         144.0631  143.9615  171.0485 O.3     1  UNL1       -0.4561
     18 C         138.8384  139.7598  164.5064 C.ar    1  UNL1        0.0016
     19 C         138.8801  138.4494  163.7778 C.ar    1  UNL1        0.0014
     20 C         138.8406  138.4231  162.2785 C.ar    1  UNL1        0.0199
     21 C         138.7594  139.7074  161.5079 C.ar    1  UNL1        0.1222
     22 C         138.7178  141.0180  162.2365 C.ar    1  UNL1        0.0199
     23 C         138.7573  141.0442  163.7357 C.ar    1  UNL1        0.0014
     24 S         138.7199  139.6813  160.0086 S.O2    1  UNL1        0.0634
     25 O         139.2204  138.2673  160.0201 O.2     1  UNL1       -0.1528
     26 O         138.2195  141.0952  159.9971 O.2     1  UNL1       -0.1528
     27 N         138.6805  139.6551  158.5094 N.3     1  UNL1       -0.1526
     28 C         139.5738  138.7181  157.7519 C.3     1  UNL1        0.1150
     29 C         137.7476  140.5659  157.7677 C.3     1  UNL1        0.1150
@<TRIPOS>BOND
     1    16    17    1
     2    17    10    1
     3    10    11   ar
     4    11    12   ar
     5    12    13   ar
     6    13     1    1
     7     1     2   ar
     8     2     3   ar
     9     3    18    1
    10    18    19   ar
    11    19    20   ar
    12    20    21   ar
    13    21    24    1
    14    24    25    2
    15    24    26    2
    16    24    27    1
    17    27    28    1
    18    27    29    1
    19    21    22   ar
    20    22    23   ar
    21     3     4   ar
    22     4     5   ar
    23     5     6   ar
    24     6     7    1
    25    13    14   ar
    26    14    15   ar
    27    15    10   ar
    28     6     1   ar
    29    23    18   ar
    30     7     8    1
    31     7     9    1
@<TRIPOS>MOLECULE
*****
 29 31 0 0 0
SMALL
GASTEIGER

@<TRIPOS>ATOM
      1 C         138.8440  140.9165  163.7334 C.ar    1  UNL1        0.0327
      2 C         139.6925  140.2285  162.7056 C.ar    1  UNL1        0.0044
      3 C         139.5284  140.5620  161.2524 C.ar    1  UNL1        0.0193
      4 C         138.5158  141.5836  160.8270 C.ar    1  UNL1        0.1002
      5 N         137.6673  142.2716  161.8549 N.ar    1  UNL1       -0.2296
      6 C         137.8314  141.9381  163.3081 C.ar    1  UNL1        0.1254
      7 N         136.9828  142.6262  164.3360 N.pl3   1  UNL1       -0.3426
      8 H         136.3181  143.2967  164.0568 H       1  UNL1        0.1437
      9 H         137.0904  142.4073  165.2898 H       1  UNL1        0.1437
     10 C         139.3363  139.9160  168.0931 C.ar    1  UNL1        0.2250
     11 C         138.3750  139.1339  167.2480 C.ar    1  UNL1        0.0577
     12 C         138.2109  139.4674  165.7948 C.ar    1  UNL1        0.0064
     13 C         139.0081  140.5830  165.1867 C.ar    1  UNL1        0.0221
     14 C         139.9694  141.3651  166.0317 C.ar    1  UNL1        0.1021
     15 N         140.1335  141.0316  167.4850 N.ar    1  UNL1       -0.2101
     16 C         140.4088  140.4089  170.4075 C.3     1  UNL1        0.2542
     17 O         139.5004  139.5825  169.5463 O.3     1  UNL1       -0.4561
     18 C         140.3771  139.8739  160.2245 C.ar    1  UNL1        0.0016
     19 C         141.8724  139.9259  160.3297 C.ar    1  UNL1        0.0014
     20 C         142.7210  139.2378  159.3018 C.ar    1  UNL1        0.0199
     21 C         142.0742  138.4978  158.1687 C.ar    1  UNL1        0.1222
     22 C         140.5787  138.4458  158.0635 C.ar    1  UNL1        0.0199
     23 C         139.7302  139.1339  159.0914 C.ar    1  UNL1        0.0014
     24 S         142.9227  137.8097  157.1409 S.O2    1  UNL1        0.0634
     25 O         143.8747  138.9688  157.1508 O.2     1  UNL1       -0.1528
     26 O         141.9707  136.6506  157.1309 O.2     1  UNL1       -0.1528
     27 N         143.7712  137.1216  156.1130 N.3     1  UNL1       -0.1526
     28 C         143.8050  135.6234  156.0494 C.3     1  UNL1        0.1150
     29 C         144.5860  137.9318  155.1487 C.3     1  UNL1        0.1150
@<TRIPOS>BOND
     1    16    17    1
     2    17    10    1
     3    10    11   ar
     4    11    12   ar
     5    12    13   ar
     6    13     1    1
     7     1     2   ar
     8     2     3   ar
     9     3    18    1
    10    18    19   ar
    11    19    20   ar
    12    20    21   ar
    13    21    24    1
    14    24    25    2
    15    24    26    2
    16    24    27    1
    17    27    28    1
    18    27    29    1
    19    21    22   ar
    20    22    23   ar
    21     3     4   ar
    22     4     5   ar
    23     5     6   ar
    24     6     7    1
    25    13    14   ar
    26    14    15   ar
    27    15    10   ar
    28     6     1   ar
    29    23    18   ar
    30     7     8    1
    31     7     9    1
@<TRIPOS>MOLECULE
*****
 29 31 0 0 0
SMALL
GASTEIGER

@<TRIPOS>ATOM
      1 C         140.2737  143.2364  164.3056 C.ar    1  UNL1        0.0327
      2 C         141.2301  142.8559  163.2145 C.ar    1  UNL1        0.0044
      3 C         141.3822  143.7363  162.0096 C.ar    1  UNL1        0.0193
      4 C         140.5780  144.9973  161.8959 C.ar    1  UNL1        0.1002
      5 N         139.6216  145.3779  162.9869 N.ar    1  UNL1       -0.2296
      6 C         139.4695  144.4974  164.1918 C.ar    1  UNL1        0.1254
      7 N         138.5130  144.8781  165.2829 N.pl3   1  UNL1       -0.3426
      8 H         137.9852  145.7057  165.2082 H       1  UNL1        0.1437
      9 H         138.4132  144.3002  166.0737 H       1  UNL1        0.1437
     10 C         139.8173  140.5951  167.9201 C.ar    1  UNL1        0.2250
     11 C         140.6281  141.8540  168.0087 C.ar    1  UNL1        0.0577
     12 C         140.7802  142.7344  166.8038 C.ar    1  UNL1        0.0064
     13 C         140.1216  142.3560  165.5104 C.ar    1  UNL1        0.0221
     14 C         139.3108  141.0971  165.4219 C.ar    1  UNL1        0.1021
     15 N         139.1587  140.2167  166.6267 N.ar    1  UNL1       -0.2101
     16 C         140.4773  139.9829  170.3572 C.3     1  UNL1        0.2542
     17 O         139.6652  139.7147  169.1250 O.3     1  UNL1       -0.4561
     18 C         142.3387  143.3557  160.9185 C.ar    1  UNL1        0.0016
     19 C         143.6605  142.7358  161.2624 C.ar    1  UNL1        0.0014
     20 C         144.6170  142.3551  160.1713 C.ar    1  UNL1        0.0199
     21 C         144.2515  142.5945  158.7364 C.ar    1  UNL1        0.1222
     22 C         142.9295  143.2145  158.3925 C.ar    1  UNL1        0.0199
     23 C         141.9731  143.5950  159.4836 C.ar    1  UNL1        0.0014
     24 S         145.2078  142.2139  157.6453 S.O2    1  UNL1        0.0634
     25 O         144.1101  141.4721  156.9419 O.2     1  UNL1       -0.1528
     26 O         146.3055  142.9557  158.3487 O.2     1  UNL1       -0.1528
     27 N         146.1642  141.8333  156.5542 N.3     1  UNL1       -0.1526
     28 C         147.4702  142.5579  156.4151 C.3     1  UNL1        0.1150
     29 C         145.8145  140.7281  155.6022 C.3     1  UNL1        0.1150
@<TRIPOS>BOND
     1    16    17    1
     2    17    10    1
     3    10    11   ar
     4    11    12   ar
     5    12    13   ar
     6    13     1    1
     7     1     2   ar
     8     2     3   ar
     9     3    18    1
    10    18    19   ar
    11    19    20   ar
    12    20    21   ar
    13    21    24    1
    14    24    25    2
    15    24    26    2
    16    24    27    1
    17    27    28    1
    18    27    29    1
    19    21    22   ar
    20    22    23   ar
    21     3     4   ar
    22     4     5   ar
    23     5     6   ar
    24     6     7    1
    25    13    14   ar
    26    14    15   ar
    27    15    10   ar
    28     6     1   ar
    29    23    18   ar
    30     7     8    1
    31     7     9    1
@<TRIPOS>MOLECULE
*****
 29 31 0 0 0
SMALL
GASTEIGER

@<TRIPOS>ATOM
      1 C         140.5999  139.3619  165.5361 C.ar    1  UNL1        0.0327
      2 C         141.2260  139.2296  164.1796 C.ar    1  UNL1        0.0044
      3 C         140.4844  138.5359  163.0756 C.ar    1  UNL1        0.0193
      4 C         139.1165  137.9746  163.3282 C.ar    1  UNL1        0.1002
      5 N         138.4904  138.1069  164.6848 N.ar    1  UNL1       -0.2296
      6 C         139.2320  138.8005  165.7888 C.ar    1  UNL1        0.1254
      7 N         138.6058  138.9328  167.1454 N.pl3   1  UNL1       -0.3426
      8 H         137.7080  138.5644  167.3112 H       1  UNL1        0.1437
      9 H         139.0926  139.3881  167.8700 H       1  UNL1        0.1437
     10 C         142.8249  141.4430  168.8480 C.ar    1  UNL1        0.2250
     11 C         141.9159  142.2259  167.9477 C.ar    1  UNL1        0.0577
     12 C         141.1742  141.5322  166.8437 C.ar    1  UNL1        0.0064
     13 C         141.3415  140.0556  166.6401 C.ar    1  UNL1        0.0221
     14 C         142.2505  139.2726  167.5405 C.ar    1  UNL1        0.1021
     15 N         142.9921  139.9663  168.6444 N.ar    1  UNL1       -0.2101
     16 C         142.9278  143.2816  170.6807 C.3     1  UNL1        0.2542
     17 O         143.5665  142.1366  169.9520 O.3     1  UNL1       -0.4561
     18 C         141.1106  138.4036  161.7189 C.ar    1  UNL1        0.0016
     19 C         142.4590  137.7627  161.5746 C.ar    1  UNL1        0.0014
     20 C         143.0852  137.6304  160.2180 C.ar    1  UNL1        0.0199
     21 C         142.3630  138.1391  159.0057 C.ar    1  UNL1        0.1222
     22 C         141.0145  138.7801  159.1501 C.ar    1  UNL1        0.0199
     23 C         140.3884  138.9124  160.5067 C.ar    1  UNL1        0.0014
     24 S         142.9892  138.0068  157.6491 S.O2    1  UNL1        0.0634
     25 O         142.3306  136.6704  157.4755 O.2     1  UNL1       -0.1528
     26 O         143.6477  139.3433  157.8228 O.2     1  UNL1       -0.1528
     27 N         143.6153  137.8746  156.2925 N.3     1  UNL1       -0.1526
     28 C         143.8751  136.5145  155.7158 C.3     1  UNL1        0.1150
     29 C         143.9817  139.1024  155.5126 C.3     1  UNL1        0.1150
@<TRIPOS>BOND
     1    16    17    1
     2    17    10    1
     3    10    11   ar
     4    11    12   ar
     5    12    13   ar
     6    13     1    1
     7     1     2   ar
     8     2     3   ar
     9     3    18    1
    10    18    19   ar
    11    19    20   ar
    12    20    21   ar
    13    21    24    1
    14    24    25    2
    15    24    26    2
    16    24    27    1
    17    27    28    1
    18    27    29    1
    19    21    22   ar
    20    22    23   ar
    21     3     4   ar
    22     4     5   ar
    23     5     6   ar
    24     6     7    1
    25    13    14   ar
    26    14    15   ar
    27    15    10   ar
    28     6     1   ar
    29    23    18   ar
    30     7     8    1
    31     7     9    1
@<TRIPOS>MOLECULE
*****
 29 31 0 0 0
SMALL
GASTEIGER

@<TRIPOS>ATOM
      1 C         139.7644  139.4825  164.8642 C.ar    1  UNL1        0.0327
      2 C         140.0217  140.5616  163.8546 C.ar    1  UNL1        0.0044
      3 C         139.4989  140.4200  162.4559 C.ar    1  UNL1        0.0193
      4 C         138.7187  139.1995  162.0667 C.ar    1  UNL1        0.1002
      5 N         138.4614  138.1204  163.0763 N.ar    1  UNL1       -0.2296
      6 C         138.9843  138.2619  164.4751 C.ar    1  UNL1        0.1254
      7 N         138.7270  137.1827  165.4847 N.pl3   1  UNL1       -0.3426
      8 H         138.2149  136.3816  165.2293 H       1  UNL1        0.1437
      9 H         139.0702  137.2756  166.4028 H       1  UNL1        0.1437
     10 C         141.3330  139.9070  169.0606 C.ar    1  UNL1        0.2250
     11 C         139.8775  140.1334  168.7775 C.ar    1  UNL1        0.0577
     12 C         139.3547  139.9918  167.3787 C.ar    1  UNL1        0.0064
     13 C         140.2873  139.6240  166.2630 C.ar    1  UNL1        0.0221
     14 C         141.7428  139.3976  166.5461 C.ar    1  UNL1        0.1021
     15 N         142.2657  139.5392  167.9449 N.ar    1  UNL1       -0.2101
     16 C         141.7642  141.3693  171.1643 C.3     1  UNL1        0.2542
     17 O         141.8559  140.0485  170.4594 O.3     1  UNL1       -0.4561
     18 C         139.7562  141.4992  161.4462 C.ar    1  UNL1        0.0016
     19 C         138.7010  141.8522  160.4403 C.ar    1  UNL1        0.0014
     20 C         138.9583  142.9314  159.4307 C.ar    1  UNL1        0.0199
     21 C         140.2708  143.6575  159.4270 C.ar    1  UNL1        0.1222
     22 C         141.3260  143.3044  160.4330 C.ar    1  UNL1        0.0199
     23 C         141.0687  142.2253  161.4426 C.ar    1  UNL1        0.0014
     24 S         140.5282  144.7366  158.4175 S.O2    1  UNL1        0.0634
     25 O         139.5209  144.1149  157.4962 O.2     1  UNL1       -0.1528
     26 O         141.5355  145.3583  159.3388 O.2     1  UNL1       -0.1528
     27 N         140.7855  145.8157  157.4079 N.3     1  UNL1       -0.1526
     28 C         142.1466  145.9593  156.7940 C.3     1  UNL1        0.1150
     29 C         139.6818  146.7513  157.0123 C.3     1  UNL1        0.1150
@<TRIPOS>BOND
     1    16    17    1
     2    17    10    1
     3    10    11   ar
     4    11    12   ar
     5    12    13   ar
     6    13     1    1
     7     1     2   ar
     8     2     3   ar
     9     3    18    1
    10    18    19   ar
    11    19    20   ar
    12    20    21   ar
    13    21    24    1
    14    24    25    2
    15    24    26    2
    16    24    27    1
    17    27    28    1
    18    27    29    1
    19    21    22   ar
    20    22    23   ar
    21     3     4   ar
    22     4     5   ar
    23     5     6   ar
    24     6     7    1
    25    13    14   ar
    26    14    15   ar
    27    15    10   ar
    28     6     1   ar
    29    23    18   ar
    30     7     8    1
    31     7     9    1
@<TRIPOS>MOLECULE
*****
 29 31 0 0 0
SMALL
GASTEIGER

@<TRIPOS>ATOM
      1 C         143.4895  141.0847  163.3294 C.ar    1  UNL1        0.0327
      2 C         142.3206  141.1088  162.3897 C.ar    1  UNL1        0.0044
      3 C         142.4707  141.7041  161.0211 C.ar    1  UNL1        0.0193
      4 C         143.7897  142.2752  160.5922 C.ar    1  UNL1        0.1002
      5 N         144.9586  142.2512  161.5319 N.ar    1  UNL1       -0.2296
      6 C         144.8085  141.6559  162.9005 C.ar    1  UNL1        0.1254
      7 N         145.9775  141.6318  163.8402 N.pl3   1  UNL1       -0.3426
      8 H         146.8432  142.0067  163.5587 H       1  UNL1        0.1437
      9 H         145.8790  141.2412  164.7385 H       1  UNL1        0.1437
     10 C         143.0393  139.2989  167.4353 C.ar    1  UNL1        0.2250
     11 C         143.4815  138.4397  166.2881 C.ar    1  UNL1        0.0577
     12 C         143.6316  139.0350  164.9195 C.ar    1  UNL1        0.0064
     13 C         143.3394  140.4895  164.6981 C.ar    1  UNL1        0.0221
     14 C         142.8972  141.3487  165.8453 C.ar    1  UNL1        0.1021
     15 N         142.7471  140.7534  167.2139 N.ar    1  UNL1       -0.2101
     16 C         142.1397  139.4493  169.8680 C.3     1  UNL1        0.2542
     17 O         142.8892  138.7037  168.8039 O.3     1  UNL1       -0.4561
     18 C         141.3017  141.7281  160.0814 C.ar    1  UNL1        0.0016
     19 C         141.2820  140.8229  158.8855 C.ar    1  UNL1        0.0014
     20 C         140.1131  140.8470  157.9458 C.ar    1  UNL1        0.0199
     21 C         138.9638  141.7763  158.2020 C.ar    1  UNL1        0.1222
     22 C         138.9836  142.6815  159.3980 C.ar    1  UNL1        0.0199
     23 C         140.1525  142.6574  160.3376 C.ar    1  UNL1        0.0014
     24 S         137.7949  141.8004  157.2624 S.O2    1  UNL1        0.0634
     25 O         138.1122  143.2219  156.9041 O.2     1  UNL1       -0.1528
     26 O         137.4776  140.3788  157.6207 O.2     1  UNL1       -0.1528
     27 N         136.6259  141.8245  156.3228 N.3     1  UNL1       -0.1526
     28 C         136.5017  142.9223  155.3082 C.3     1  UNL1        0.1150
     29 C         135.5812  140.7507  156.3977 C.3     1  UNL1        0.1150
@<TRIPOS>BOND
     1    16    17    1
     2    17    10    1
     3    10    11   ar
     4    11    12   ar
     5    12    13   ar
     6    13     1    1
     7     1     2   ar
     8     2     3   ar
     9     3    18    1
    10    18    19   ar
    11    19    20   ar
    12    20    21   ar
    13    21    24    1
    14    24    25    2
    15    24    26    2
    16    24    27    1
    17    27    28    1
    18    27    29    1
    19    21    22   ar
    20    22    23   ar
    21     3     4   ar
    22     4     5   ar
    23     5     6   ar
    24     6     7    1
    25    13    14   ar
    26    14    15   ar
    27    15    10   ar
    28     6     1   ar
    29    23    18   ar
    30     7     8    1
    31     7     9    1
@<TRIPOS>MOLECULE
*****
 29 31 0 0 0
SMALL
GASTEIGER

@<TRIPOS>ATOM
      1 C         140.4374  138.9755  163.5188 C.ar    1  UNL1        0.0327
      2 C         140.2317  140.0648  162.5084 C.ar    1  UNL1        0.0044
      3 C         140.6648  139.8607  161.0868 C.ar    1  UNL1        0.0193
      4 C         141.3036  138.5673  160.6758 C.ar    1  UNL1        0.1002
      5 N         141.5093  137.4780  161.6862 N.ar    1  UNL1       -0.2296
      6 C         141.0761  137.6821  163.1078 C.ar    1  UNL1        0.1254
      7 N         141.2818  136.5927  164.1183 N.pl3   1  UNL1       -0.3426
      8 H         141.7011  135.7438  163.8485 H       1  UNL1        0.1437
      9 H         140.9976  136.7267  165.0513 H       1  UNL1        0.1437
     10 C         139.1380  139.5879  167.7834 C.ar    1  UNL1        0.2250
     11 C         138.2048  138.9463  166.7998 C.ar    1  UNL1        0.0577
     12 C         138.6379  138.7422  165.3783 C.ar    1  UNL1        0.0064
     13 C         140.0043  139.1796  164.9404 C.ar    1  UNL1        0.0221
     14 C         140.9374  139.8212  165.9240 C.ar    1  UNL1        0.1021
     15 N         140.5043  140.0253  167.3455 N.ar    1  UNL1       -0.2101
     16 C         139.6859  140.2925  170.2234 C.3     1  UNL1        0.2542
     17 O         138.7049  139.7920  169.2050 O.3     1  UNL1       -0.4561
     18 C         140.4591  140.9501  160.0763 C.ar    1  UNL1        0.0016
     19 C         141.4354  141.1231  158.9507 C.ar    1  UNL1        0.0014
     20 C         141.2297  142.2124  157.9403 C.ar    1  UNL1        0.0199
     21 C         140.0477  143.1288  158.0554 C.ar    1  UNL1        0.1222
     22 C         139.0714  142.9558  159.1811 C.ar    1  UNL1        0.0199
     23 C         139.2772  141.8664  160.1915 C.ar    1  UNL1        0.0014
     24 S         139.8420  144.2181  157.0450 S.O2    1  UNL1        0.0634
     25 O         140.1054  145.2488  158.1025 O.2     1  UNL1       -0.1528
     26 O         139.5786  143.1875  155.9875 O.2     1  UNL1       -0.1528
     27 N         139.6363  145.3075  156.0346 N.3     1  UNL1       -0.1526
     28 C         140.7467  146.2695  155.7323 C.3     1  UNL1        0.1150
     29 C         138.3200  145.4348  155.3264 C.3     1  UNL1        0.1150
@<TRIPOS>BOND
     1    16    17    1
     2    17    10    1
     3    10    11   ar
     4    11    12   ar
     5    12    13   ar
     6    13     1    1
     7     1     2   ar
     8     2     3   ar
     9     3    18    1
    10    18    19   ar
    11    19    20   ar
    12    20    21   ar
    13    21    24    1
    14    24    25    2
    15    24    26    2
    16    24    27    1
    17    27    28    1
    18    27    29    1
    19    21    22   ar
    20    22    23   ar
    21     3     4   ar
    22     4     5   ar
    23     5     6   ar
    24     6     7    1
    25    13    14   ar
    26    14    15   ar
    27    15    10   ar
    28     6     1   ar
    29    23    18   ar
    30     7     8    1
    31     7     9    1
@<TRIPOS>MOLECULE
*****
 29 31 0 0 0
SMALL
GASTEIGER

@<TRIPOS>ATOM
      1 C         142.1632  140.0069  168.0410 C.ar    1  UNL1        0.0327
      2 C         142.1132  139.9993  166.5419 C.ar    1  UNL1        0.0044
      3 C         142.8393  138.9357  165.7726 C.ar    1  UNL1        0.0193
      4 C         143.6153  137.8799  166.5025 C.ar    1  UNL1        0.1002
      5 N         143.6653  137.8875  168.0017 N.ar    1  UNL1       -0.2296
      6 C         142.9392  138.9510  168.7709 C.ar    1  UNL1        0.1254
      7 N         142.9892  138.9587  170.2701 N.pl3   1  UNL1       -0.3426
      8 H         143.4986  138.2656  170.7491 H       1  UNL1        0.1437
      9 H         142.5127  139.6567  170.7750 H       1  UNL1        0.1437
     10 C         139.9849  143.1975  170.3486 C.ar    1  UNL1        0.2250
     11 C         139.3242  141.8761  170.0894 C.ar    1  UNL1        0.0577
     12 C         140.0502  140.8126  169.3202 C.ar    1  UNL1        0.0064
     13 C         141.4371  141.0705  168.8102 C.ar    1  UNL1        0.0221
     14 C         142.0978  142.3919  169.0694 C.ar    1  UNL1        0.1021
     15 N         141.3718  143.4554  169.8386 N.ar    1  UNL1       -0.2101
     16 C         139.4134  145.7026  170.7332 C.3     1  UNL1        0.2542
     17 O         139.2588  144.2611  171.1178 O.3     1  UNL1       -0.4561
     18 C         142.7893  138.9281  164.2734 C.ar    1  UNL1        0.0016
     19 C         144.0508  139.0981  163.4801 C.ar    1  UNL1        0.0014
     20 C         144.0008  139.0905  161.9809 C.ar    1  UNL1        0.0199
     21 C         142.6892  138.9129  161.2751 C.ar    1  UNL1        0.1222
     22 C         141.4276  138.7428  162.0686 C.ar    1  UNL1        0.0199
     23 C         141.4776  138.7505  163.5677 C.ar    1  UNL1        0.0014
     24 S         142.6391  138.9052  159.7760 S.O2    1  UNL1        0.0634
     25 O         141.2525  138.3354  159.8252 O.2     1  UNL1       -0.1528
     26 O         144.0258  139.4751  159.7268 O.2     1  UNL1       -0.1528
     27 N         142.5891  138.8976  158.2769 N.3     1  UNL1       -0.1526
     28 C         143.5683  139.7170  157.4896 C.3     1  UNL1        0.1150
     29 C         141.5598  138.0706  157.5650 C.3     1  UNL1        0.1150
@<TRIPOS>BOND
     1    16    17    1
     2    17    10    1
     3    10    11   ar
     4    11    12   ar
     5    12    13   ar
     6    13     1    1
     7     1     2   ar
     8     2     3   ar
     9     3    18    1
    10    18    19   ar
    11    19    20   ar
    12    20    21   ar
    13    21    24    1
    14    24    25    2
    15    24    26    2
    16    24    27    1
    17    27    28    1
    18    27    29    1
    19    21    22   ar
    20    22    23   ar
    21     3     4   ar
    22     4     5   ar
    23     5     6   ar
    24     6     7    1
    25    13    14   ar
    26    14    15   ar
    27    15    10   ar
    28     6     1   ar
    29    23    18   ar
    30     7     8    1
    31     7     9    1
@<TRIPOS>MOLECULE
*****
 29 31 0 0 0
SMALL
GASTEIGER

@<TRIPOS>ATOM
      1 C         140.8283  139.0184  164.5099 C.ar    1  UNL1        0.0327
      2 C         141.6684  139.6014  163.4125 C.ar    1  UNL1        0.0044
      3 C         141.4202  139.2058  161.9871 C.ar    1  UNL1        0.0193
      4 C         140.3319  138.2272  161.6590 C.ar    1  UNL1        0.1002
      5 N         139.4917  137.6442  162.7563 N.ar    1  UNL1       -0.2296
      6 C         139.7399  138.0397  164.1817 C.ar    1  UNL1        0.1254
      7 N         138.8997  137.4566  165.2791 N.pl3   1  UNL1       -0.3426
      8 H         138.1854  136.8143  165.0637 H       1  UNL1        0.1437
      9 H         139.0626  137.7163  166.2147 H       1  UNL1        0.1437
     10 C         141.5729  140.2051  168.7862 C.ar    1  UNL1        0.2250
     11 C         142.6332  139.4772  168.0144 C.ar    1  UNL1        0.0577
     12 C         142.3850  139.0816  166.5889 C.ar    1  UNL1        0.0064
     13 C         141.0765  139.4140  165.9353 C.ar    1  UNL1        0.0221
     14 C         140.0162  140.1419  166.7072 C.ar    1  UNL1        0.1021
     15 N         140.2644  140.5375  168.1326 N.ar    1  UNL1       -0.2101
     16 C         141.8864  142.0515  170.5869 C.3     1  UNL1        0.2542
     17 O         141.8211  140.6007  170.2117 O.3     1  UNL1       -0.4561
     18 C         142.2604  139.7889  160.8897 C.ar    1  UNL1        0.0016
     19 C         142.4431  139.0369  159.6048 C.ar    1  UNL1        0.0014
     20 C         143.2834  139.6200  158.5075 C.ar    1  UNL1        0.0199
     21 C         143.9409  140.9551  158.6951 C.ar    1  UNL1        0.1222
     22 C         143.7581  141.7071  159.9801 C.ar    1  UNL1        0.0199
     23 C         142.9179  141.1240  161.0774 C.ar    1  UNL1        0.0014
     24 S         144.7810  141.5382  157.5979 S.O2    1  UNL1        0.0634
     25 O         144.5455  142.9135  158.1484 O.2     1  UNL1       -0.1528
     26 O         145.0166  140.1630  157.0474 O.2     1  UNL1       -0.1528
     27 N         145.6212  142.1213  156.5006 N.3     1  UNL1       -0.1526
     28 C         147.0508  142.4901  156.7659 C.3     1  UNL1        0.1150
     29 C         145.0319  142.3357  155.1380 C.3     1  UNL1        0.1150
@<TRIPOS>BOND
     1    16    17    1
     2    17    10    1
     3    10    11   ar
     4    11    12   ar
     5    12    13   ar
     6    13     1    1
     7     1     2   ar
     8     2     3   ar
     9     3    18    1
    10    18    19   ar
    11    19    20   ar
    12    20    21   ar
    13    21    24    1
    14    24    25    2
    15    24    26    2
    16    24    27    1
    17    27    28    1
    18    27    29    1
    19    21    22   ar
    20    22    23   ar
    21     3     4   ar
    22     4     5   ar
    23     5     6   ar
    24     6     7    1
    25    13    14   ar
    26    14    15   ar
    27    15    10   ar
    28     6     1   ar
    29    23    18   ar
    30     7     8    1
    31     7     9    1
