@<TRIPOS>MOLECULE
*****
 33 37 0 0 0
SMALL
GASTEIGER

@<TRIPOS>ATOM
      1 C         143.4779  142.5768  164.2017 C.ar    1  UNL1        0.0540
      2 C         144.8241  142.6319  163.5424 C.ar    1  UNL1        0.0152
      3 C         145.7187  141.4281  163.5622 C.ar    1  UNL1        0.0010
      4 C         145.2672  140.1691  164.2412 C.ar    1  UNL1       -0.0032
      5 C         143.9210  140.1140  164.9004 C.ar    1  UNL1       -0.0091
      6 C         143.0263  141.3178  164.8807 C.ar    1  UNL1       -0.0091
      7 C         141.6800  141.2626  165.5399 C.3     1  UNL1        0.0445
      8 C         141.2285  140.0036  166.2189 C.3     1  UNL1        0.0749
      9 N         142.1232  138.7998  166.2386 N.3     1  UNL1       -0.2934
     10 C         143.4694  138.8550  165.5794 C.3     1  UNL1        0.0954
     11 H         141.6072  138.0421  165.7915 H       1  UNL1        0.1236
     12 N         142.5832  143.7806  164.1820 N.pl3   1  UNL1       -0.2755
     13 H         142.3935  144.2667  165.0168 H       1  UNL1        0.1665
     14 C         140.1604  145.6334  159.0150 C.3     1  UNL1        0.0897
     15 N         140.7661  145.1702  160.3068 N.3     1  UNL1       -0.2690
     16 C         141.8125  144.0955  160.3017 C.3     1  UNL1        0.0915
     17 C         142.4182  143.6323  161.5934 C.3     1  UNL1        0.1091
     18 N         141.9775  144.2438  162.8902 N.3     1  UNL1       -0.2052
     19 C         140.9310  145.3185  162.8954 C.3     1  UNL1        0.1091
     20 C         140.3253  145.7817  161.6036 C.3     1  UNL1        0.0915
     21 C         139.8823  139.9485  166.8782 C.3     1  UNL1        0.0886
     22 N         138.7441  139.2437  166.2015 N.3     1  UNL1       -0.2667
     23 C         137.6842  138.5708  167.0225 C.3     1  UNL1        0.0899
     24 C         138.6658  139.2118  164.7039 C.3     1  UNL1        0.0978
     25 C         138.8877  137.9234  163.9685 C.3     1  UNL1        0.0224
     26 C         138.8093  137.8915  162.4709 C.3     1  UNL1        0.0065
     27 C         138.5091  139.1480  161.7087 C.3     1  UNL1        0.0277
     28 C         138.2872  140.4364  162.4440 C.ar    1  UNL1       -0.0073
     29 C         137.9869  141.6929  161.6818 C.ar    1  UNL1       -0.0015
     30 C         137.7650  142.9814  162.4172 C.ar    1  UNL1        0.0203
     31 C         137.8433  143.0132  163.9148 C.ar    1  UNL1        0.0985
     32 N         138.1436  141.7567  164.6770 N.ar    1  UNL1       -0.2471
     33 C         138.3655  140.4683  163.9417 C.ar    1  UNL1        0.0695
@<TRIPOS>BOND
     1    14    15    1
     2    15    16    1
     3    16    17    1
     4    17    18    1
     5    18    12    1
     6    12     1    1
     7     1     2   ar
     8     2     3   ar
     9     3     4   ar
    10     4     5   ar
    11     5     6   ar
    12     6     7    1
    13     7     8    1
    14     8    21    1
    15    21    22    1
    16    22    23    1
    17    24    22    1
    18    24    25    1
    19    25    26    1
    20    26    27    1
    21    27    28    1
    22    28    29   ar
    23    29    30   ar
    24    30    31   ar
    25    31    32   ar
    26    32    33   ar
    27     8     9    1
    28     9    10    1
    29    18    19    1
    30    19    20    1
    31    20    15    1
    32     6     1   ar
    33    33    24    1
    34    10     5    1
    35    33    28   ar
    36    12    13    1
    37     9    11    1
@<TRIPOS>MOLECULE
*****
 33 37 0 0 0
SMALL
GASTEIGER

@<TRIPOS>ATOM
      1 C         143.0479  140.3397  163.0587 C.ar    1  UNL1        0.0540
      2 C         144.1502  139.6450  163.8018 C.ar    1  UNL1        0.0152
      3 C         145.3930  140.3972  164.1752 C.ar    1  UNL1        0.0010
      4 C         145.5336  141.8441  163.8055 C.ar    1  UNL1       -0.0032
      5 C         144.4313  142.5388  163.0624 C.ar    1  UNL1       -0.0091
      6 C         143.1884  141.7866  162.6890 C.ar    1  UNL1       -0.0091
      7 C         142.0860  142.4813  161.9459 C.3     1  UNL1        0.0445
      8 C         142.2266  143.9283  161.5762 C.3     1  UNL1        0.0749
      9 N         143.4695  144.6805  161.9496 N.3     1  UNL1       -0.2934
     10 C         144.5718  143.9857  162.6927 C.3     1  UNL1        0.0954
     11 H         143.1749  145.4673  162.5279 H       1  UNL1        0.1236
     12 N         141.8049  139.5875  162.6853 N.pl3   1  UNL1       -0.2755
     13 H         141.6653  139.2986  161.7546 H       1  UNL1        0.1665
     14 C         137.6842  138.3398  166.8641 C.3     1  UNL1        0.0897
     15 N         138.7144  138.6517  165.8194 N.3     1  UNL1       -0.2690
     16 C         138.8645  137.7584  164.6239 C.3     1  UNL1        0.0915
     17 C         139.8947  138.0703  163.5792 C.3     1  UNL1        0.1091
     18 N         140.7747  139.2756  163.7300 N.3     1  UNL1       -0.2052
     19 C         140.6246  140.1690  164.9256 C.3     1  UNL1        0.1091
     20 C         139.5944  139.8571  165.9703 C.3     1  UNL1        0.0915
     21 C         141.1243  144.6230  160.8331 C.3     1  UNL1        0.0886
     22 N         139.9467  145.1740  161.5812 N.3     1  UNL1       -0.2667
     23 C         139.4934  146.5824  161.3341 C.3     1  UNL1        0.0899
     24 C         139.2223  144.3167  162.5763 C.3     1  UNL1        0.0978
     25 C         139.0480  144.7910  163.9886 C.3     1  UNL1        0.0224
     26 C         138.3237  143.9336  164.9837 C.3     1  UNL1        0.0065
     27 C         137.7736  142.6020  164.5665 C.3     1  UNL1        0.0277
     28 C         137.9478  142.1277  163.1542 C.ar    1  UNL1       -0.0073
     29 C         137.3976  140.7960  162.7370 C.ar    1  UNL1       -0.0015
     30 C         137.5719  140.3217  161.3246 C.ar    1  UNL1        0.0203
     31 C         138.2962  141.1791  160.3295 C.ar    1  UNL1        0.0985
     32 N         138.8464  142.5107  160.7467 N.ar    1  UNL1       -0.2471
     33 C         138.6722  142.9850  162.1590 C.ar    1  UNL1        0.0695
@<TRIPOS>BOND
     1    14    15    1
     2    15    16    1
     3    16    17    1
     4    17    18    1
     5    18    12    1
     6    12     1    1
     7     1     2   ar
     8     2     3   ar
     9     3     4   ar
    10     4     5   ar
    11     5     6   ar
    12     6     7    1
    13     7     8    1
    14     8    21    1
    15    21    22    1
    16    22    23    1
    17    24    22    1
    18    24    25    1
    19    25    26    1
    20    26    27    1
    21    27    28    1
    22    28    29   ar
    23    29    30   ar
    24    30    31   ar
    25    31    32   ar
    26    32    33   ar
    27     8     9    1
    28     9    10    1
    29    18    19    1
    30    19    20    1
    31    20    15    1
    32     6     1   ar
    33    33    24    1
    34    10     5    1
    35    33    28   ar
    36    12    13    1
    37     9    11    1
@<TRIPOS>MOLECULE
*****
 33 37 0 0 0
SMALL
GASTEIGER

@<TRIPOS>ATOM
      1 C         140.3414  139.5969  164.3833 C.ar    1  UNL1        0.0540
      2 C         140.1770  138.1195  164.1832 C.ar    1  UNL1        0.0152
      3 C         139.1329  137.6022  163.2387 C.ar    1  UNL1        0.0010
      4 C         138.2532  138.5624  162.4942 C.ar    1  UNL1       -0.0032
      5 C         138.4176  140.0398  162.6943 C.ar    1  UNL1       -0.0091
      6 C         139.4617  140.5571  163.6389 C.ar    1  UNL1       -0.0091
      7 C         139.6261  142.0346  163.8390 C.3     1  UNL1        0.0445
      8 C         138.7464  142.9948  163.0946 C.3     1  UNL1        0.0749
      9 N         137.7023  142.4774  162.1500 N.3     1  UNL1       -0.2934
     10 C         137.5379  141.0000  161.9499 C.3     1  UNL1        0.0954
     11 H         137.9091  142.8773  161.2348 H       1  UNL1        0.1236
     12 N         141.3856  140.1143  165.3279 N.pl3   1  UNL1       -0.2755
     13 H         142.3381  140.0633  165.0846 H       1  UNL1        0.1665
     14 C         139.7564  142.4939  170.5894 C.3     1  UNL1        0.0897
     15 N         140.1637  141.8990  169.2740 N.3     1  UNL1       -0.2690
     16 C         141.1083  142.6410  168.3757 C.3     1  UNL1        0.0915
     17 C         141.5156  142.0460  167.0603 C.3     1  UNL1        0.1091
     18 N         140.9783  140.7092  166.6433 N.3     1  UNL1       -0.2052
     19 C         140.0336  139.9671  167.5417 C.3     1  UNL1        0.1091
     20 C         139.6263  140.5620  168.8570 C.3     1  UNL1        0.0915
     21 C         138.9108  144.4722  163.2947 C.3     1  UNL1        0.0886
     22 N         139.9501  145.2234  162.5165 N.3     1  UNL1       -0.2667
     23 C         139.5409  146.3401  161.6024 C.3     1  UNL1        0.0899
     24 C         141.3985  144.8580  162.6524 C.3     1  UNL1        0.0978
     25 C         142.1989  145.3814  163.8081 C.3     1  UNL1        0.0224
     26 C         143.6473  145.0159  163.9440 C.3     1  UNL1        0.0065
     27 C         144.2954  144.1271  162.9243 C.3     1  UNL1        0.0277
     28 C         143.4951  143.6037  161.7686 C.ar    1  UNL1       -0.0073
     29 C         144.1433  142.7149  160.7488 C.ar    1  UNL1       -0.0015
     30 C         143.3429  142.1915  159.5931 C.ar    1  UNL1        0.0203
     31 C         141.8945  142.5570  159.4572 C.ar    1  UNL1        0.0985
     32 N         141.2464  143.4458  160.4770 N.ar    1  UNL1       -0.2471
     33 C         142.0466  143.9692  161.6326 C.ar    1  UNL1        0.0695
@<TRIPOS>BOND
     1    14    15    1
     2    15    16    1
     3    16    17    1
     4    17    18    1
     5    18    12    1
     6    12     1    1
     7     1     2   ar
     8     2     3   ar
     9     3     4   ar
    10     4     5   ar
    11     5     6   ar
    12     6     7    1
    13     7     8    1
    14     8    21    1
    15    21    22    1
    16    22    23    1
    17    24    22    1
    18    24    25    1
    19    25    26    1
    20    26    27    1
    21    27    28    1
    22    28    29   ar
    23    29    30   ar
    24    30    31   ar
    25    31    32   ar
    26    32    33   ar
    27     8     9    1
    28     9    10    1
    29    18    19    1
    30    19    20    1
    31    20    15    1
    32     6     1   ar
    33    33    24    1
    34    10     5    1
    35    33    28   ar
    36    12    13    1
    37     9    11    1
@<TRIPOS>MOLECULE
*****
 33 37 0 0 0
SMALL
GASTEIGER

@<TRIPOS>ATOM
      1 C         140.2803  143.2837  164.5586 C.ar    1  UNL1        0.0540
      2 C         139.2714  144.1194  165.2891 C.ar    1  UNL1        0.0152
      3 C         137.9485  144.4254  164.6517 C.ar    1  UNL1        0.0010
      4 C         137.6345  143.8957  163.2839 C.ar    1  UNL1       -0.0032
      5 C         138.6434  143.0600  162.5535 C.ar    1  UNL1       -0.0091
      6 C         139.9663  142.7540  163.1908 C.ar    1  UNL1       -0.0091
      7 C         140.9754  141.9183  162.4603 C.3     1  UNL1        0.0445
      8 C         140.6614  141.3886  161.0925 C.3     1  UNL1        0.0749
      9 N         139.3384  141.6947  160.4552 N.3     1  UNL1       -0.2934
     10 C         138.3295  142.5304  161.1856 C.3     1  UNL1        0.0954
     11 H         138.8920  140.7989  160.2587 H       1  UNL1        0.1236
     12 N         141.6033  142.9776  165.1960 N.pl3   1  UNL1       -0.2755
     13 H         142.4282  143.3732  164.8323 H       1  UNL1        0.1665
     14 C         141.8676  139.3421  169.9618 C.3     1  UNL1        0.0897
     15 N         141.8016  140.2510  168.7703 N.3     1  UNL1       -0.2690
     16 C         140.6314  140.1772  167.8348 C.3     1  UNL1        0.0915
     17 C         140.5653  141.0861  166.6433 C.3     1  UNL1        0.1091
     18 N         141.6694  142.0687  166.3874 N.3     1  UNL1       -0.2052
     19 C         142.8396  142.1425  167.3230 C.3     1  UNL1        0.1091
     20 C         142.9057  141.2337  168.5145 C.3     1  UNL1        0.0915
     21 C         141.6703  140.5529  160.3621 C.3     1  UNL1        0.0886
     22 N         141.8095  139.0943  160.6830 N.3     1  UNL1       -0.2667
     23 C         142.3792  138.1531  159.6633 C.3     1  UNL1        0.0899
     24 C         141.3791  138.5768  162.0234 C.3     1  UNL1        0.0978
     25 C         140.0178  137.9694  162.1911 C.3     1  UNL1        0.0224
     26 C         139.5873  137.4519  163.5316 C.3     1  UNL1        0.0065
     27 C         140.5181  137.5419  164.7044 C.3     1  UNL1        0.0277
     28 C         141.8793  138.1494  164.5368 C.ar    1  UNL1       -0.0073
     29 C         142.8100  138.2394  165.7097 C.ar    1  UNL1       -0.0015
     30 C         144.1712  138.8468  165.5421 C.ar    1  UNL1        0.0203
     31 C         144.6017  139.3643  164.2016 C.ar    1  UNL1        0.0985
     32 N         143.6710  139.2743  163.0287 N.ar    1  UNL1       -0.2471
     33 C         142.3098  138.6668  163.1963 C.ar    1  UNL1        0.0695
@<TRIPOS>BOND
     1    14    15    1
     2    15    16    1
     3    16    17    1
     4    17    18    1
     5    18    12    1
     6    12     1    1
     7     1     2   ar
     8     2     3   ar
     9     3     4   ar
    10     4     5   ar
    11     5     6   ar
    12     6     7    1
    13     7     8    1
    14     8    21    1
    15    21    22    1
    16    22    23    1
    17    24    22    1
    18    24    25    1
    19    25    26    1
    20    26    27    1
    21    27    28    1
    22    28    29   ar
    23    29    30   ar
    24    30    31   ar
    25    31    32   ar
    26    32    33   ar
    27     8     9    1
    28     9    10    1
    29    18    19    1
    30    19    20    1
    31    20    15    1
    32     6     1   ar
    33    33    24    1
    34    10     5    1
    35    33    28   ar
    36    12    13    1
    37     9    11    1
@<TRIPOS>MOLECULE
*****
 33 37 0 0 0
SMALL
GASTEIGER

@<TRIPOS>ATOM
      1 C         140.3221  140.5053  165.3410 C.ar    1  UNL1        0.0540
      2 C         139.6795  140.3850  166.6910 C.ar    1  UNL1        0.0152
      3 C         138.6951  139.2851  166.9577 C.ar    1  UNL1        0.0010
      4 C         138.3534  138.3055  165.8745 C.ar    1  UNL1       -0.0032
      5 C         138.9960  138.4257  164.5245 C.ar    1  UNL1       -0.0091
      6 C         139.9803  139.5256  164.2577 C.ar    1  UNL1       -0.0091
      7 C         140.6230  139.6459  162.9077 C.3     1  UNL1        0.0445
      8 C         140.2812  138.6663  161.8244 C.3     1  UNL1        0.0749
      9 N         139.2968  137.5663  162.0912 N.3     1  UNL1       -0.2934
     10 C         138.6542  137.4460  163.4412 C.3     1  UNL1        0.0954
     11 H         139.7836  136.6870  161.9174 H       1  UNL1        0.1236
     12 N         141.3065  141.6053  165.0742 N.pl3   1  UNL1       -0.2755
     13 H         142.2182  141.5497  165.4415 H       1  UNL1        0.1665
     14 C         139.6874  146.3435  161.7685 C.3     1  UNL1        0.0897
     15 N         140.0921  145.1589  162.5949 N.3     1  UNL1       -0.2690
     16 C         141.2982  144.3538  162.2115 C.3     1  UNL1        0.0915
     17 C         141.7030  143.1692  163.0379 C.3     1  UNL1        0.1091
     18 N         140.9017  142.7898  164.2478 N.3     1  UNL1       -0.2052
     19 C         139.6955  143.5950  164.6313 C.3     1  UNL1        0.1091
     20 C         139.2908  144.7795  163.8049 C.3     1  UNL1        0.0915
     21 C         140.9238  138.7865  160.4744 C.3     1  UNL1        0.0886
     22 N         142.4187  138.7695  160.3511 N.3     1  UNL1       -0.2667
     23 C         143.1369  137.4740  160.1141 C.3     1  UNL1        0.0899
     24 C         143.1952  140.0477  160.4647 C.3     1  UNL1        0.0978
     25 C         143.1690  141.0435  159.3432 C.3     1  UNL1        0.0224
     26 C         143.9456  142.3217  159.4568 C.3     1  UNL1        0.0065
     27 C         144.7484  142.6043  160.6920 C.3     1  UNL1        0.0277
     28 C         144.7746  141.6086  161.8135 C.ar    1  UNL1       -0.0073
     29 C         145.5775  141.8912  163.0487 C.ar    1  UNL1       -0.0015
     30 C         145.6037  140.8954  164.1702 C.ar    1  UNL1        0.0203
     31 C         144.8271  139.6171  164.0566 C.ar    1  UNL1        0.0985
     32 N         144.0243  139.3346  162.8214 N.ar    1  UNL1       -0.2471
     33 C         143.9981  140.3303  161.6999 C.ar    1  UNL1        0.0695
@<TRIPOS>BOND
     1    14    15    1
     2    15    16    1
     3    16    17    1
     4    17    18    1
     5    18    12    1
     6    12     1    1
     7     1     2   ar
     8     2     3   ar
     9     3     4   ar
    10     4     5   ar
    11     5     6   ar
    12     6     7    1
    13     7     8    1
    14     8    21    1
    15    21    22    1
    16    22    23    1
    17    24    22    1
    18    24    25    1
    19    25    26    1
    20    26    27    1
    21    27    28    1
    22    28    29   ar
    23    29    30   ar
    24    30    31   ar
    25    31    32   ar
    26    32    33   ar
    27     8     9    1
    28     9    10    1
    29    18    19    1
    30    19    20    1
    31    20    15    1
    32     6     1   ar
    33    33    24    1
    34    10     5    1
    35    33    28   ar
    36    12    13    1
    37     9    11    1
@<TRIPOS>MOLECULE
*****
 33 37 0 0 0
SMALL
GASTEIGER

@<TRIPOS>ATOM
      1 C         139.2369  140.1522  165.2062 C.ar    1  UNL1        0.0540
      2 C         138.9697  138.8510  165.9031 C.ar    1  UNL1        0.0152
      3 C         138.8957  137.5784  165.1127 C.ar    1  UNL1        0.0010
      4 C         139.0890  137.6068  163.6255 C.ar    1  UNL1       -0.0032
      5 C         139.3562  138.9079  162.9286 C.ar    1  UNL1       -0.0091
      6 C         139.4302  140.1806  163.7190 C.ar    1  UNL1       -0.0091
      7 C         139.6974  141.4818  163.0222 C.3     1  UNL1        0.0445
      8 C         139.8907  141.5103  161.5350 C.3     1  UNL1        0.0749
      9 N         139.8168  140.2375  160.7446 N.3     1  UNL1       -0.2934
     10 C         139.5495  138.9364  161.4414 C.3     1  UNL1        0.0954
     11 H         140.7112  140.1363  160.2649 H       1  UNL1        0.1236
     12 N         139.3108  141.4249  165.9966 N.pl3   1  UNL1       -0.2755
     13 H         138.6099  142.1088  165.8953 H       1  UNL1        0.1665
     14 C         143.8788  142.3483  169.7756 C.3     1  UNL1        0.0897
     15 N         142.7368  142.1175  168.8309 N.3     1  UNL1       -0.2690
     16 C         142.9597  142.2021  167.3500 C.3     1  UNL1        0.0915
     17 C         141.8177  141.9713  166.4052 C.3     1  UNL1        0.1091
     18 N         140.4528  141.6558  166.9414 N.3     1  UNL1       -0.2052
     19 C         140.2299  141.5711  168.4224 C.3     1  UNL1        0.1091
     20 C         141.3719  141.8020  169.3671 C.3     1  UNL1        0.0915
     21 C         140.1579  142.8114  160.8381 C.3     1  UNL1        0.0886
     22 N         141.5635  143.3196  160.7117 N.3     1  UNL1       -0.2667
     23 C         142.1862  143.4737  159.3557 C.3     1  UNL1        0.0899
     24 C         142.3465  143.6737  161.9411 C.3     1  UNL1        0.0978
     25 C         142.1206  144.9920  162.6203 C.3     1  UNL1        0.0224
     26 C         142.9035  145.3461  163.8498 C.3     1  UNL1        0.0065
     27 C         143.9124  144.3820  164.4001 C.3     1  UNL1        0.0277
     28 C         144.1382  143.0638  163.7209 C.ar    1  UNL1       -0.0073
     29 C         145.1471  142.0997  164.2713 C.ar    1  UNL1       -0.0015
     30 C         145.3729  140.7815  163.5920 C.ar    1  UNL1        0.0203
     31 C         144.5900  140.4274  162.3626 C.ar    1  UNL1        0.0985
     32 N         143.5812  141.3914  161.8123 N.ar    1  UNL1       -0.2471
     33 C         143.3553  142.7096  162.4914 C.ar    1  UNL1        0.0695
@<TRIPOS>BOND
     1    14    15    1
     2    15    16    1
     3    16    17    1
     4    17    18    1
     5    18    12    1
     6    12     1    1
     7     1     2   ar
     8     2     3   ar
     9     3     4   ar
    10     4     5   ar
    11     5     6   ar
    12     6     7    1
    13     7     8    1
    14     8    21    1
    15    21    22    1
    16    22    23    1
    17    24    22    1
    18    24    25    1
    19    25    26    1
    20    26    27    1
    21    27    28    1
    22    28    29   ar
    23    29    30   ar
    24    30    31   ar
    25    31    32   ar
    26    32    33   ar
    27     8     9    1
    28     9    10    1
    29    18    19    1
    30    19    20    1
    31    20    15    1
    32     6     1   ar
    33    33    24    1
    34    10     5    1
    35    33    28   ar
    36    12    13    1
    37     9    11    1
@<TRIPOS>MOLECULE
*****
 33 37 0 0 0
SMALL
GASTEIGER

@<TRIPOS>ATOM
      1 C         139.3508  138.1570  165.0201 C.ar    1  UNL1        0.0540
      2 C         138.1676  137.5696  165.7308 C.ar    1  UNL1        0.0152
      3 C         137.7129  138.1504  167.0368 C.ar    1  UNL1        0.0010
      4 C         138.4413  139.3187  167.6322 C.ar    1  UNL1       -0.0032
      5 C         139.6245  139.9061  166.9216 C.ar    1  UNL1       -0.0091
      6 C         140.0792  139.3253  165.6155 C.ar    1  UNL1       -0.0091
      7 C         141.2624  139.9127  164.9048 C.3     1  UNL1        0.0445
      8 C         141.9908  141.0810  165.5002 C.3     1  UNL1        0.0749
      9 N         141.5360  141.6619  166.8063 N.3     1  UNL1       -0.2934
     10 C         140.3529  141.0744  167.5170 C.3     1  UNL1        0.0954
     11 H         141.3176  142.6429  166.6322 H       1  UNL1        0.1236
     12 N         139.8056  137.5762  163.7140 N.pl3   1  UNL1       -0.2755
     13 H         140.3453  136.7529  163.7027 H       1  UNL1        0.1665
     14 C         138.3350  140.2703  158.5585 C.3     1  UNL1        0.0897
     15 N         138.7026  139.5968  159.8474 N.3     1  UNL1       -0.2690
     16 C         140.0002  138.8530  159.9615 C.3     1  UNL1        0.0915
     17 C         140.3679  138.1795  161.2503 C.3     1  UNL1        0.1091
     18 N         139.4379  138.2497  162.4251 N.3     1  UNL1       -0.2052
     19 C         138.1402  138.9934  162.3111 C.3     1  UNL1        0.1091
     20 C         137.7726  139.6670  161.0222 C.3     1  UNL1        0.0915
     21 C         143.1739  141.6685  164.7896 C.3     1  UNL1        0.0886
     22 N         142.9935  142.8490  163.8819 N.3     1  UNL1       -0.2667
     23 C         143.9794  143.9789  163.9161 C.3     1  UNL1        0.0899
     24 C         141.8271  142.8995  162.9401 C.3     1  UNL1        0.0978
     25 C         141.9897  142.4449  161.5199 C.3     1  UNL1        0.0224
     26 C         140.8233  142.4954  160.5781 C.3     1  UNL1        0.0065
     27 C         139.4944  143.0006  161.0564 C.3     1  UNL1        0.0277
     28 C         139.3319  143.4552  162.4765 C.ar    1  UNL1       -0.0073
     29 C         138.0029  143.9604  162.9549 C.ar    1  UNL1       -0.0015
     30 C         137.8404  144.4150  164.3751 C.ar    1  UNL1        0.0203
     31 C         139.0067  144.3645  165.3169 C.ar    1  UNL1        0.0985
     32 N         140.3357  143.8593  164.8386 N.ar    1  UNL1       -0.2471
     33 C         140.4982  143.4047  163.4184 C.ar    1  UNL1        0.0695
@<TRIPOS>BOND
     1    14    15    1
     2    15    16    1
     3    16    17    1
     4    17    18    1
     5    18    12    1
     6    12     1    1
     7     1     2   ar
     8     2     3   ar
     9     3     4   ar
    10     4     5   ar
    11     5     6   ar
    12     6     7    1
    13     7     8    1
    14     8    21    1
    15    21    22    1
    16    22    23    1
    17    24    22    1
    18    24    25    1
    19    25    26    1
    20    26    27    1
    21    27    28    1
    22    28    29   ar
    23    29    30   ar
    24    30    31   ar
    25    31    32   ar
    26    32    33   ar
    27     8     9    1
    28     9    10    1
    29    18    19    1
    30    19    20    1
    31    20    15    1
    32     6     1   ar
    33    33    24    1
    34    10     5    1
    35    33    28   ar
    36    12    13    1
    37     9    11    1
@<TRIPOS>MOLECULE
*****
 33 37 0 0 0
SMALL
GASTEIGER

@<TRIPOS>ATOM
      1 C         137.9601  141.9327  163.5909 C.ar    1  UNL1        0.0540
      2 C         137.3846  143.2691  163.2266 C.ar    1  UNL1        0.0152
      3 C         137.9516  144.5197  163.8304 C.ar    1  UNL1        0.0010
      4 C         139.0942  144.4338  164.7985 C.ar    1  UNL1       -0.0032
      5 C         139.6697  143.0974  165.1627 C.ar    1  UNL1       -0.0091
      6 C         139.1027  141.8469  164.5590 C.ar    1  UNL1       -0.0091
      7 C         139.6782  140.5104  164.9232 C.3     1  UNL1        0.0445
      8 C         140.8208  140.4245  165.8913 C.3     1  UNL1        0.0749
      9 N         141.3878  141.6751  166.4951 N.3     1  UNL1       -0.2934
     10 C         140.8123  143.0115  166.1308 C.3     1  UNL1        0.0954
     11 H         142.3760  141.7017  166.2437 H       1  UNL1        0.1236
     12 N         137.3931  140.6821  162.9871 N.pl3   1  UNL1       -0.2755
     13 H         136.6054  140.2529  163.3928 H       1  UNL1        0.1665
     14 C         139.9254  138.2957  158.0991 C.3     1  UNL1        0.0897
     15 N         139.2923  138.8923  159.3211 N.3     1  UNL1       -0.2690
     16 C         139.2465  138.1099  160.6000 C.3     1  UNL1        0.0915
     17 C         138.6135  138.7065  161.8220 C.3     1  UNL1        0.1091
     18 N         138.0262  140.0855  161.7651 N.3     1  UNL1       -0.2052
     19 C         138.0719  140.8680  160.4861 C.3     1  UNL1        0.1091
     20 C         138.7050  140.2714  159.2641 C.3     1  UNL1        0.0915
     21 C         141.3963  139.0881  166.2556 C.3     1  UNL1        0.0886
     22 N         142.7004  138.6458  165.6609 N.3     1  UNL1       -0.2667
     23 C         143.7356  137.9906  166.5265 C.3     1  UNL1        0.0899
     24 C         142.9694  138.8587  164.2007 C.3     1  UNL1        0.0978
     25 C         142.4931  137.8520  163.1957 C.3     1  UNL1        0.0224
     26 C         142.7621  138.0649  161.7355 C.3     1  UNL1        0.0065
     27 C         143.5074  139.2845  161.2802 C.3     1  UNL1        0.0277
     28 C         143.9837  140.2911  162.2850 C.ar    1  UNL1       -0.0073
     29 C         144.7289  141.5106  161.8297 C.ar    1  UNL1       -0.0015
     30 C         145.2052  142.5173  162.8346 C.ar    1  UNL1        0.0203
     31 C         144.9362  142.3044  164.2948 C.ar    1  UNL1        0.0985
     32 N         144.1910  141.0849  164.7502 N.ar    1  UNL1       -0.2471
     33 C         143.7147  140.0782  163.7453 C.ar    1  UNL1        0.0695
@<TRIPOS>BOND
     1    14    15    1
     2    15    16    1
     3    16    17    1
     4    17    18    1
     5    18    12    1
     6    12     1    1
     7     1     2   ar
     8     2     3   ar
     9     3     4   ar
    10     4     5   ar
    11     5     6   ar
    12     6     7    1
    13     7     8    1
    14     8    21    1
    15    21    22    1
    16    22    23    1
    17    24    22    1
    18    24    25    1
    19    25    26    1
    20    26    27    1
    21    27    28    1
    22    28    29   ar
    23    29    30   ar
    24    30    31   ar
    25    31    32   ar
    26    32    33   ar
    27     8     9    1
    28     9    10    1
    29    18    19    1
    30    19    20    1
    31    20    15    1
    32     6     1   ar
    33    33    24    1
    34    10     5    1
    35    33    28   ar
    36    12    13    1
    37     9    11    1
@<TRIPOS>MOLECULE
*****
 33 37 0 0 0
SMALL
GASTEIGER

@<TRIPOS>ATOM
      1 C         139.7049  138.6769  159.8432 C.ar    1  UNL1        0.0540
      2 C         139.7332  138.6808  158.3435 C.ar    1  UNL1        0.0152
      3 C         141.0098  138.3776  157.6168 C.ar    1  UNL1        0.0010
      4 C         142.2581  138.0705  158.3897 C.ar    1  UNL1       -0.0032
      5 C         142.2298  138.0666  159.8894 C.ar    1  UNL1       -0.0091
      6 C         140.9532  138.3698  160.6162 C.ar    1  UNL1       -0.0091
      7 C         140.9248  138.3659  162.1159 C.3     1  UNL1        0.0445
      8 C         142.1731  138.0588  162.8889 C.3     1  UNL1        0.0749
      9 N         143.4498  137.7556  162.1620 N.3     1  UNL1       -0.2934
     10 C         143.4781  137.7595  160.6623 C.3     1  UNL1        0.0954
     11 H         143.7443  136.8255  162.4596 H       1  UNL1        0.1236
     12 N         138.4282  138.9802  160.5701 N.pl3   1  UNL1       -0.2755
     13 H         137.7133  138.3046  160.6122 H       1  UNL1        0.1665
     14 C         137.6785  144.3106  163.2205 C.3     1  UNL1        0.0897
     15 N         137.8659  142.9780  162.5579 N.3     1  UNL1       -0.2690
     16 C         137.4895  141.7202  163.2833 C.3     1  UNL1        0.0915
     17 C         137.6770  140.3876  162.6207 C.3     1  UNL1        0.1091
     18 N         138.2408  140.3128  161.2327 N.3     1  UNL1       -0.2052
     19 C         138.6172  141.5707  160.5073 C.3     1  UNL1        0.1091
     20 C         138.4298  142.9032  161.1699 C.3     1  UNL1        0.0915
     21 C         142.1448  138.0549  164.3885 C.3     1  UNL1        0.0886
     22 N         143.2125  138.7717  165.1607 N.3     1  UNL1       -0.2667
     23 C         143.7511  138.1746  166.4271 C.3     1  UNL1        0.0899
     24 C         143.7417  140.0853  164.6666 C.3     1  UNL1        0.0978
     25 C         145.1478  140.1823  164.1532 C.3     1  UNL1        0.0224
     26 C         145.6769  141.4959  163.6591 C.3     1  UNL1        0.0065
     27 C         144.8000  142.7128  163.6783 C.3     1  UNL1        0.0277
     28 C         143.3940  142.6159  164.1917 C.ar    1  UNL1       -0.0073
     29 C         142.5170  143.8327  164.2110 C.ar    1  UNL1       -0.0015
     30 C         141.1109  143.7358  164.7245 C.ar    1  UNL1        0.0203
     31 C         140.5818  142.4221  165.2186 C.ar    1  UNL1        0.0985
     32 N         141.4587  141.2053  165.1993 N.ar    1  UNL1       -0.2471
     33 C         142.8647  141.3022  164.6859 C.ar    1  UNL1        0.0695
@<TRIPOS>BOND
     1    14    15    1
     2    15    16    1
     3    16    17    1
     4    17    18    1
     5    18    12    1
     6    12     1    1
     7     1     2   ar
     8     2     3   ar
     9     3     4   ar
    10     4     5   ar
    11     5     6   ar
    12     6     7    1
    13     7     8    1
    14     8    21    1
    15    21    22    1
    16    22    23    1
    17    24    22    1
    18    24    25    1
    19    25    26    1
    20    26    27    1
    21    27    28    1
    22    28    29   ar
    23    29    30   ar
    24    30    31   ar
    25    31    32   ar
    26    32    33   ar
    27     8     9    1
    28     9    10    1
    29    18    19    1
    30    19    20    1
    31    20    15    1
    32     6     1   ar
    33    33    24    1
    34    10     5    1
    35    33    28   ar
    36    12    13    1
    37     9    11    1
