@<TRIPOS>MOLECULE
*****
 22 24 0 0 0
SMALL
GASTEIGER

@<TRIPOS>ATOM
      1 C         139.9676  141.2623  166.5184 C.3     1  UNL1        0.1359
      2 C         139.8960  140.6639  167.8920 C.3     1  UNL1        0.1686
      3 O         138.9675  139.5176  168.1632 O.3     1  UNL1       -0.3539
      4 C         138.1104  138.9696  167.0608 C.3     1  UNL1        0.1155
      5 C         137.1818  137.8232  167.3321 C.3     1  UNL1        0.0320
      6 C         138.1819  139.5680  165.6872 C.3     1  UNL1        0.0327
      7 C         139.1105  140.7144  165.4160 C.3     1  UNL1        0.0407
      8 C         139.1820  141.3128  164.0424 C.3     1  UNL1        0.0672
      9 S         140.1106  142.4592  163.7712 S.3     1  UNL1       -0.0807
     10 C         140.9677  143.0071  164.8736 C.2     1  UNL1        0.1482
     11 N         141.8963  144.1535  164.6023 N.pl3   1  UNL1       -0.3380
     12 N         140.8962  142.4087  166.2471 N.2     1  UNL1       -0.2483
     13 H         141.9432  144.5463  163.7007 H       1  UNL1        0.1442
     14 H         142.4588  144.5132  165.3258 H       1  UNL1        0.1442
     15 C         142.2494  141.3615  167.7566 C.ar    1  UNL1        0.1365
     16 C         143.1065  141.9094  168.8590 C.ar    1  UNL1        0.0366
     17 C         142.5387  142.9061  169.8255 C.ar    1  UNL1        0.0031
     18 C         141.1139  143.3550  169.6897 C.ar    1  UNL1       -0.0001
     19 C         140.2568  142.8070  168.5873 C.ar    1  UNL1        0.0006
     20 C         140.8246  141.8102  167.6208 C.ar    1  UNL1        0.0342
     21 C         143.0070  138.9372  167.2099 C.3     1  UNL1        0.2525
     22 O         142.8171  140.3647  166.7902 O.3     1  UNL1       -0.4717
@<TRIPOS>BOND
     1    21    22    1
     2    22    15    1
     3    15    16   ar
     4    16    17   ar
     5    17    18   ar
     6    18    19   ar
     7    19    20   ar
     8     1    20    1
     9     1     2    1
    10     2     3    1
    11     3     4    1
    12     4     5    1
    13     4     6    1
    14     7     6    1
    15     7     8    1
    16     8     9    1
    17     9    10    1
    18    10    11    1
    19    10    12    2
    20    20    15   ar
    21     7     1    1
    22    12     1    1
    23    11    13    1
    24    11    14    1
@<TRIPOS>MOLECULE
*****
 22 24 0 0 0
SMALL
GASTEIGER

@<TRIPOS>ATOM
      1 C         139.6482  141.0407  166.1295 C.3     1  UNL1        0.1359
      2 C         140.2124  139.9885  167.0375 C.3     1  UNL1        0.1686
      3 O         141.3505  140.3221  167.9559 O.3     1  UNL1       -0.3539
      4 C         141.9244  141.7079  167.9662 C.3     1  UNL1        0.1155
      5 C         143.0626  142.0415  168.8846 C.3     1  UNL1        0.0320
      6 C         141.3603  142.7601  167.0582 C.3     1  UNL1        0.0327
      7 C         140.2222  142.4265  166.1399 C.3     1  UNL1        0.0407
      8 C         139.6580  143.4788  165.2318 C.3     1  UNL1        0.0672
      9 S         138.5199  143.1452  164.3134 S.3     1  UNL1       -0.0807
     10 C         137.9459  141.7594  164.3031 C.2     1  UNL1        0.1482
     11 N         136.8077  141.4258  163.3847 N.pl3   1  UNL1       -0.3380
     12 N         138.5101  140.7071  165.2111 N.2     1  UNL1       -0.2483
     13 H         136.4375  142.1164  162.7887 H       1  UNL1        0.1442
     14 H         136.4310  140.5162  163.3779 H       1  UNL1        0.1442
     15 C         139.5850  138.6389  165.1411 C.ar    1  UNL1        0.1365
     16 C         139.0110  137.2531  165.1308 C.ar    1  UNL1        0.0366
     17 C         137.9264  136.8833  166.0986 C.ar    1  UNL1        0.0031
     18 C         137.4156  137.8994  167.0768 C.ar    1  UNL1       -0.0001
     19 C         137.9895  139.2852  167.0871 C.ar    1  UNL1        0.0006
     20 C         139.0743  139.6549  166.1192 C.ar    1  UNL1        0.0342
     21 C         141.6760  137.9815  163.7463 C.3     1  UNL1        0.2525
     22 O         140.6697  139.0086  164.1733 O.3     1  UNL1       -0.4717
@<TRIPOS>BOND
     1    21    22    1
     2    22    15    1
     3    15    16   ar
     4    16    17   ar
     5    17    18   ar
     6    18    19   ar
     7    19    20   ar
     8     1    20    1
     9     1     2    1
    10     2     3    1
    11     3     4    1
    12     4     5    1
    13     4     6    1
    14     7     6    1
    15     7     8    1
    16     8     9    1
    17     9    10    1
    18    10    11    1
    19    10    12    2
    20    20    15   ar
    21     7     1    1
    22    12     1    1
    23    11    13    1
    24    11    14    1
@<TRIPOS>MOLECULE
*****
 22 24 0 0 0
SMALL
GASTEIGER

@<TRIPOS>ATOM
      1 C         142.0912  142.6325  164.2780 C.3     1  UNL1        0.1359
      2 C         141.0206  141.9086  165.0395 C.3     1  UNL1        0.1686
      3 O         139.7319  142.6035  165.3655 O.3     1  UNL1       -0.3539
      4 C         139.5137  144.0222  164.9300 C.3     1  UNL1        0.1155
      5 C         138.2250  144.7171  165.2561 C.3     1  UNL1        0.0320
      6 C         140.5843  144.7461  164.1685 C.3     1  UNL1        0.0327
      7 C         141.8730  144.0512  163.8425 C.3     1  UNL1        0.0407
      8 C         142.9436  144.7750  163.0809 C.3     1  UNL1        0.0672
      9 S         144.2323  144.0801  162.7548 S.3     1  UNL1       -0.0807
     10 C         144.4505  142.6614  163.1903 C.2     1  UNL1        0.1482
     11 N         145.7393  141.9666  162.8643 N.pl3   1  UNL1       -0.3380
     12 N         143.3799  141.9376  163.9519 N.2     1  UNL1       -0.2483
     13 H         146.4419  142.4417  162.3644 H       1  UNL1        0.1442
     14 H         145.8825  141.0354  163.1501 H       1  UNL1        0.1442
     15 C         142.9257  140.9260  166.0503 C.ar    1  UNL1        0.1365
     16 C         143.1439  139.5072  166.4858 C.ar    1  UNL1        0.0366
     17 C         142.7457  138.3763  165.5845 C.ar    1  UNL1        0.0031
     18 C         142.1293  138.6641  164.2475 C.ar    1  UNL1       -0.0001
     19 C         141.9111  140.0828  163.8120 C.ar    1  UNL1        0.0006
     20 C         142.3093  141.2138  164.7135 C.ar    1  UNL1        0.0342
     21 C         142.7709  142.1368  168.3438 C.3     1  UNL1        0.2525
     22 O         143.3239  142.0569  166.9517 O.3     1  UNL1       -0.4717
@<TRIPOS>BOND
     1    21    22    1
     2    22    15    1
     3    15    16   ar
     4    16    17   ar
     5    17    18   ar
     6    18    19   ar
     7    19    20   ar
     8     1    20    1
     9     1     2    1
    10     2     3    1
    11     3     4    1
    12     4     5    1
    13     4     6    1
    14     7     6    1
    15     7     8    1
    16     8     9    1
    17     9    10    1
    18    10    11    1
    19    10    12    2
    20    20    15   ar
    21     7     1    1
    22    12     1    1
    23    11    13    1
    24    11    14    1
@<TRIPOS>MOLECULE
*****
 22 24 0 0 0
SMALL
GASTEIGER

@<TRIPOS>ATOM
      1 C         142.4270  141.0387  165.6845 C.3     1  UNL1        0.1359
      2 C         142.5656  142.2642  166.5382 C.3     1  UNL1        0.1686
      3 O         142.7441  142.1287  168.0213 O.3     1  UNL1       -0.3539
      4 C         142.7840  140.7678  168.6507 C.3     1  UNL1        0.1155
      5 C         142.9626  140.6323  170.1340 C.3     1  UNL1        0.0320
      6 C         142.6454  139.5422  167.7970 C.3     1  UNL1        0.0327
      7 C         142.4669  139.6777  166.3139 C.3     1  UNL1        0.0407
      8 C         142.3283  138.4522  165.4601 C.3     1  UNL1        0.0672
      9 S         142.1498  138.5876  163.9769 S.3     1  UNL1       -0.0807
     10 C         142.1099  139.9486  163.3475 C.2     1  UNL1        0.1482
     11 N         141.9314  140.0840  161.8643 N.pl3   1  UNL1       -0.3380
     12 N         142.2485  141.1741  164.2012 N.2     1  UNL1       -0.2483
     13 H         141.8404  139.2796  161.3040 H       1  UNL1        0.1442
     14 H         141.9052  140.9772  161.4512 H       1  UNL1        0.1442
     15 C         143.6545  143.0398  164.5714 C.ar    1  UNL1        0.1365
     16 C         143.6146  144.4007  163.9420 C.ar    1  UNL1        0.0366
     17 C         142.3073  145.1216  163.7962 C.ar    1  UNL1        0.0031
     18 C         141.0398  144.4815  164.2798 C.ar    1  UNL1       -0.0001
     19 C         141.0797  143.1205  164.9092 C.ar    1  UNL1        0.0006
     20 C         142.3871  142.3996  165.0550 C.ar    1  UNL1        0.0342
     21 C         145.6708  141.7982  163.5022 C.3     1  UNL1        0.2525
     22 O         144.9618  142.3189  164.7172 O.3     1  UNL1       -0.4717
@<TRIPOS>BOND
     1    21    22    1
     2    22    15    1
     3    15    16   ar
     4    16    17   ar
     5    17    18   ar
     6    18    19   ar
     7    19    20   ar
     8     1    20    1
     9     1     2    1
    10     2     3    1
    11     3     4    1
    12     4     5    1
    13     4     6    1
    14     7     6    1
    15     7     8    1
    16     8     9    1
    17     9    10    1
    18    10    11    1
    19    10    12    2
    20    20    15   ar
    21     7     1    1
    22    12     1    1
    23    11    13    1
    24    11    14    1
@<TRIPOS>MOLECULE
*****
 22 24 0 0 0
SMALL
GASTEIGER

@<TRIPOS>ATOM
      1 C         140.9306  139.4275  165.4197 C.3     1  UNL1        0.1359
      2 C         141.8275  140.1841  166.3540 C.3     1  UNL1        0.1686
      3 O         141.3327  140.5777  167.7142 O.3     1  UNL1       -0.3539
      4 C         139.9410  140.2148  168.1400 C.3     1  UNL1        0.1155
      5 C         139.4462  140.6085  169.5003 C.3     1  UNL1        0.0320
      6 C         139.0440  139.4582  167.2057 C.3     1  UNL1        0.0327
      7 C         139.5388  139.0645  165.8455 C.3     1  UNL1        0.0407
      8 C         138.6419  138.3079  164.9111 C.3     1  UNL1        0.0672
      9 S         139.1367  137.9142  163.5509 S.3     1  UNL1       -0.0807
     10 C         140.5284  138.2772  163.1251 C.2     1  UNL1        0.1482
     11 N         141.0232  137.8835  161.7648 N.pl3   1  UNL1       -0.3380
     12 N         141.4254  139.0338  164.0594 N.2     1  UNL1       -0.2483
     13 H         140.4345  137.3869  161.1515 H       1  UNL1        0.1442
     14 H         141.9367  138.1217  161.4853 H       1  UNL1        0.1442
     15 C         142.5828  141.1084  164.3267 C.ar    1  UNL1        0.1365
     16 C         143.9745  141.4713  163.9008 C.ar    1  UNL1        0.0366
     17 C         145.1058  140.5163  164.1421 C.ar    1  UNL1        0.0031
     18 C         144.8453  139.1983  164.8093 C.ar    1  UNL1       -0.0001
     19 C         143.4536  138.8354  165.2351 C.ar    1  UNL1        0.0006
     20 C         142.3223  139.7904  164.9938 C.ar    1  UNL1        0.0342
     21 C         141.5129  143.4548  164.6425 C.3     1  UNL1        0.2525
     22 O         141.4516  142.0634  164.0854 O.3     1  UNL1       -0.4717
@<TRIPOS>BOND
     1    21    22    1
     2    22    15    1
     3    15    16   ar
     4    16    17   ar
     5    17    18   ar
     6    18    19   ar
     7    19    20   ar
     8     1    20    1
     9     1     2    1
    10     2     3    1
    11     3     4    1
    12     4     5    1
    13     4     6    1
    14     7     6    1
    15     7     8    1
    16     8     9    1
    17     9    10    1
    18    10    11    1
    19    10    12    2
    20    20    15   ar
    21     7     1    1
    22    12     1    1
    23    11    13    1
    24    11    14    1
@<TRIPOS>MOLECULE
*****
 22 24 0 0 0
SMALL
GASTEIGER

@<TRIPOS>ATOM
      1 C         139.9142  141.1274  165.5594 C.3     1  UNL1        0.1359
      2 C         138.5486  140.8672  164.9962 C.3     1  UNL1        0.1686
      3 O         137.8435  141.9359  164.2146 O.3     1  UNL1       -0.3539
      4 C         138.5042  143.2647  163.9962 C.3     1  UNL1        0.1155
      5 C         137.7991  144.3334  163.2146 C.3     1  UNL1        0.0320
      6 C         139.8699  143.5249  164.5594 C.3     1  UNL1        0.0327
      7 C         140.5749  142.4563  165.3410 C.3     1  UNL1        0.0407
      8 C         141.9406  142.7165  165.9042 C.3     1  UNL1        0.0672
      9 S         142.6456  141.6478  166.6858 S.3     1  UNL1       -0.0807
     10 C         141.9850  140.3190  166.9042 C.2     1  UNL1        0.1482
     11 N         142.6901  139.2503  167.6858 N.pl3   1  UNL1       -0.3380
     12 N         140.6193  140.0588  166.3410 N.2     1  UNL1       -0.2483
     13 H         143.5864  139.4211  168.0555 H       1  UNL1        0.1442
     14 H         142.2565  138.3781  167.8292 H       1  UNL1        0.1442
     15 C         139.5464  138.6544  164.8531 C.ar    1  UNL1        0.1365
     16 C         138.8857  137.3256  165.0715 C.ar    1  UNL1        0.0366
     17 C         137.9323  137.1409  166.2146 C.ar    1  UNL1        0.0031
     18 C         137.6394  138.2851  167.1394 C.ar    1  UNL1       -0.0001
     19 C         138.3001  139.6139  166.9210 C.ar    1  UNL1        0.0006
     20 C         139.2536  139.7986  165.7778 C.ar    1  UNL1        0.0342
     21 C         141.6020  137.8468  163.4848 C.3     1  UNL1        0.2525
     22 O         140.4998  138.8391  163.7100 O.3     1  UNL1       -0.4717
@<TRIPOS>BOND
     1    21    22    1
     2    22    15    1
     3    15    16   ar
     4    16    17   ar
     5    17    18   ar
     6    18    19   ar
     7    19    20   ar
     8     1    20    1
     9     1     2    1
    10     2     3    1
    11     3     4    1
    12     4     5    1
    13     4     6    1
    14     7     6    1
    15     7     8    1
    16     8     9    1
    17     9    10    1
    18    10    11    1
    19    10    12    2
    20    20    15   ar
    21     7     1    1
    22    12     1    1
    23    11    13    1
    24    11    14    1
@<TRIPOS>MOLECULE
*****
 22 24 0 0 0
SMALL
GASTEIGER

@<TRIPOS>ATOM
      1 C         141.4970  142.7305  165.4116 C.3     1  UNL1        0.1359
      2 C         140.2078  142.1214  165.8773 C.3     1  UNL1        0.1686
      3 O         140.1990  141.1950  167.0569 O.3     1  UNL1       -0.3539
      4 C         141.4795  140.8776  167.7709 C.3     1  UNL1        0.1155
      5 C         141.4706  139.9511  168.9505 C.3     1  UNL1        0.0320
      6 C         142.7687  141.4866  167.3052 C.3     1  UNL1        0.0327
      7 C         142.7775  142.4131  166.1255 C.3     1  UNL1        0.0407
      8 C         144.0667  143.0222  165.6598 C.3     1  UNL1        0.0672
      9 S         144.0755  143.9486  164.4802 S.3     1  UNL1       -0.0807
     10 C         142.7950  144.2660  163.7662 C.2     1  UNL1        0.1482
     11 N         142.8039  145.1925  162.5865 N.pl3   1  UNL1       -0.3380
     12 N         141.5058  143.6570  164.2319 N.2     1  UNL1       -0.2483
     13 H         143.6501  145.5923  162.2809 H       1  UNL1        0.1442
     14 H         141.9635  145.4009  162.1179 H       1  UNL1        0.1442
     15 C         139.8106  142.2490  163.4948 C.ar    1  UNL1        0.1365
     16 C         138.5302  142.5664  162.7809 C.ar    1  UNL1        0.0366
     17 C         137.6557  143.6827  163.2698 C.ar    1  UNL1        0.0031
     18 C         138.0616  144.4816  164.4727 C.ar    1  UNL1       -0.0001
     19 C         139.3420  144.1642  165.1866 C.ar    1  UNL1        0.0006
     20 C         140.2166  143.0479  164.6977 C.ar    1  UNL1        0.0342
     21 C         140.1599  139.7280  162.9726 C.3     1  UNL1        0.2525
     22 O         140.6851  141.1327  163.0059 O.3     1  UNL1       -0.4717
@<TRIPOS>BOND
     1    21    22    1
     2    22    15    1
     3    15    16   ar
     4    16    17   ar
     5    17    18   ar
     6    18    19   ar
     7    19    20   ar
     8     1    20    1
     9     1     2    1
    10     2     3    1
    11     3     4    1
    12     4     5    1
    13     4     6    1
    14     7     6    1
    15     7     8    1
    16     8     9    1
    17     9    10    1
    18    10    11    1
    19    10    12    2
    20    20    15   ar
    21     7     1    1
    22    12     1    1
    23    11    13    1
    24    11    14    1
@<TRIPOS>MOLECULE
*****
 22 24 0 0 0
SMALL
GASTEIGER

@<TRIPOS>ATOM
      1 C         140.8138  141.0043  166.0919 C.3     1  UNL1        0.1359
      2 C         140.1370  140.8621  164.7609 C.3     1  UNL1        0.1686
      3 O         139.3518  142.0069  164.1927 O.3     1  UNL1       -0.3539
      4 C         139.2434  143.2939  164.9555 C.3     1  UNL1        0.1155
      5 C         138.4581  144.4387  164.3872 C.3     1  UNL1        0.0320
      6 C         139.9202  143.4361  166.2865 C.3     1  UNL1        0.0327
      7 C         140.7054  142.2913  166.8547 C.3     1  UNL1        0.0407
      8 C         141.3822  142.4335  168.1858 C.3     1  UNL1        0.0672
      9 S         142.1674  141.2887  168.7540 S.3     1  UNL1       -0.0807
     10 C         142.2758  140.0017  167.9912 C.2     1  UNL1        0.1482
     11 N         143.0610  138.8569  168.5595 N.pl3   1  UNL1       -0.3380
     12 N         141.5990  139.8595  166.6602 N.2     1  UNL1       -0.2483
     13 H         143.5052  138.9502  169.4331 H       1  UNL1        0.1442
     14 H         143.1322  138.0122  168.0588 H       1  UNL1        0.1442
     15 C         142.1027  139.4714  164.4370 C.ar    1  UNL1        0.1365
     16 C         142.2111  138.1844  163.6741 C.ar    1  UNL1        0.0366
     17 C         141.1390  137.1434  163.8034 C.ar    1  UNL1        0.0031
     18 C         139.9584  137.3892  164.6955 C.ar    1  UNL1       -0.0001
     19 C         139.8500  138.6762  165.4584 C.ar    1  UNL1        0.0006
     20 C         140.9222  139.7173  165.3291 C.ar    1  UNL1        0.0342
     21 C         144.6151  140.1004  164.2311 C.3     1  UNL1        0.2525
     22 O         143.1748  140.5125  164.3077 O.3     1  UNL1       -0.4717
@<TRIPOS>BOND
     1    21    22    1
     2    22    15    1
     3    15    16   ar
     4    16    17   ar
     5    17    18   ar
     6    18    19   ar
     7    19    20   ar
     8     1    20    1
     9     1     2    1
    10     2     3    1
    11     3     4    1
    12     4     5    1
    13     4     6    1
    14     7     6    1
    15     7     8    1
    16     8     9    1
    17     9    10    1
    18    10    11    1
    19    10    12    2
    20    20    15   ar
    21     7     1    1
    22    12     1    1
    23    11    13    1
    24    11    14    1
@<TRIPOS>MOLECULE
*****
 22 24 0 0 0
SMALL
GASTEIGER

@<TRIPOS>ATOM
      1 C         140.5618  140.4192  165.7534 C.3     1  UNL1        0.1359
      2 C         141.1058  140.5591  164.3625 C.3     1  UNL1        0.1686
      3 O         142.2981  141.4329  164.1079 O.3     1  UNL1       -0.3539
      4 C         142.9463  142.1669  165.2442 C.3     1  UNL1        0.1155
      5 C         144.1387  143.0408  164.9895 C.3     1  UNL1        0.0320
      6 C         142.4024  142.0270  166.6350 C.3     1  UNL1        0.0327
      7 C         141.2101  141.1531  166.8896 C.3     1  UNL1        0.0407
      8 C         140.6661  141.0132  168.2805 C.3     1  UNL1        0.0672
      9 S         139.4738  140.1393  168.5351 S.3     1  UNL1       -0.0807
     10 C         138.8256  139.4054  167.3988 C.2     1  UNL1        0.1482
     11 N         137.6332  138.5315  167.6535 N.pl3   1  UNL1       -0.3380
     12 N         139.3695  139.5453  166.0080 N.2     1  UNL1       -0.2483
     13 H         137.2762  138.4396  168.5664 H       1  UNL1        0.1442
     14 H         137.2078  138.0497  166.9077 H       1  UNL1        0.1442
     15 C         138.7630  140.3064  163.8822 C.ar    1  UNL1        0.1365
     16 C         138.1147  139.5724  162.7460 C.ar    1  UNL1        0.0366
     17 C         138.6171  138.2173  162.3446 C.ar    1  UNL1        0.0031
     18 C         139.7677  137.5960  163.0795 C.ar    1  UNL1       -0.0001
     19 C         140.4160  138.3300  164.2158 C.ar    1  UNL1        0.0006
     20 C         139.9136  139.6852  164.6171 C.ar    1  UNL1        0.0342
     21 C         137.6481  142.5685  163.2577 C.3     1  UNL1        0.2525
     22 O         138.2606  141.6616  164.2836 O.3     1  UNL1       -0.4717
@<TRIPOS>BOND
     1    21    22    1
     2    22    15    1
     3    15    16   ar
     4    16    17   ar
     5    17    18   ar
     6    18    19   ar
     7    19    20   ar
     8     1    20    1
     9     1     2    1
    10     2     3    1
    11     3     4    1
    12     4     5    1
    13     4     6    1
    14     7     6    1
    15     7     8    1
    16     8     9    1
    17     9    10    1
    18    10    11    1
    19    10    12    2
    20    20    15   ar
    21     7     1    1
    22    12     1    1
    23    11    13    1
    24    11    14    1
