@<TRIPOS>MOLECULE
*****
 38 42 0 0 0
SMALL
GASTEIGER

@<TRIPOS>ATOM
      1 N         139.3302  143.0045  161.1504 N.am    1  UNL1       -0.3018
      2 C         138.1621  142.8771  162.0827 C.2     1  UNL1        0.2425
      3 O         137.4262  141.5744  162.1894 O.2     1  UNL1       -0.2733
      4 H         139.8131  143.8596  161.0804 H       1  UNL1        0.1495
      5 N         140.3735  140.1670  159.1569 N.3     1  UNL1       -0.2711
      6 C         140.0247  140.3782  160.6004 C.3     1  UNL1        0.0933
      7 C         139.7623  141.8292  160.3246 C.3     1  UNL1        0.1035
      8 C         140.1112  141.6179  158.8812 C.3     1  UNL1        0.0933
      9 C         141.6700  136.6410  156.6797 C.3     1  UNL1        0.0301
     10 C         142.6059  137.2305  157.6930 C.3     1  UNL1        0.0063
     11 C         142.1737  138.4057  158.5187 C.3     1  UNL1        0.0163
     12 C         140.8057  138.9916  158.3312 C.3     1  UNL1        0.0576
     13 C         139.8698  138.4022  157.3179 C.3     1  UNL1        0.0163
     14 C         140.3020  137.2269  156.4921 C.3     1  UNL1        0.0063
     15 C         143.0892  133.3507  155.1879 C.ar    1  UNL1        0.0879
     16 N         142.4459  133.9632  153.9791 N.ar    1  UNL1       -0.2415
     17 C         141.8360  135.2703  154.3908 C.ar    1  UNL1        0.1012
     18 C         142.1023  135.4657  155.8540 C.ar    1  UNL1        0.0271
     19 S         142.8768  134.2793  156.3467 S.2     1  UNL1       -0.0751
     20 C         144.8784  131.8044  156.2641 C.3     1  UNL1        0.0073
     21 C         143.8171  132.0398  155.2306 C.3     1  UNL1        0.0526
     22 C         137.7299  144.0524  162.9085 C.3     1  UNL1        0.1747
     23 N         138.3925  144.3277  164.2259 N.pl3   1  UNL1       -0.3093
     24 H         137.9782  144.9522  164.8643 H       1  UNL1        0.1487
     25 C         139.6863  143.6514  164.5705 C.ar    1  UNL1        0.1500
     26 N         141.0583  144.2324  164.3971 N.ar    1  UNL1       -0.1544
     27 N         142.0551  143.2155  164.8685 N.ar    1  UNL1       -0.2476
     28 C         143.5462  143.3792  164.8742 C.3     1  UNL1        0.1537
     29 C         141.2992  142.0060  165.3332 C.ar    1  UNL1        0.0807
     30 C         141.7549  140.6943  165.9002 C.ar    1  UNL1        0.0188
     31 C         140.7465  139.6519  166.2830 C.ar    1  UNL1        0.0054
     32 C         139.2824  139.9214  166.0988 C.ar    1  UNL1        0.0716
     33 C         138.8268  141.2332  165.5318 C.ar    1  UNL1        0.0082
     34 C         139.8352  142.2755  165.1490 C.ar    1  UNL1        0.0503
     35 C         138.2740  138.8790  166.4817 C.3     1  UNL1        0.4186
     36 F         137.2656  137.8366  166.8645 F       1  UNL1       -0.1659
     37 F         138.3620  139.3194  167.9128 F       1  UNL1       -0.1659
     38 F         138.1860  138.4385  165.0505 F       1  UNL1       -0.1659
@<TRIPOS>BOND
     1    20    21    1
     2    21    15    1
     3    15    16   ar
     4    16    17   ar
     5    17    18   ar
     6     9    18    1
     7     9    10    1
     8    10    11    1
     9    11    12    1
    10    12     5    1
    11     5     6    1
    12     6     7    1
    13     7     1    1
    14     1     2   am
    15     2     3    2
    16     2    22    1
    17    22    23    1
    18    23    25    1
    19    25    26   ar
    20    26    27   ar
    21    27    28    1
    22    27    29   ar
    23    29    30   ar
    24    30    31   ar
    25    31    32   ar
    26    32    35    1
    27    35    36    1
    28    35    37    1
    29    35    38    1
    30    32    33   ar
    31    33    34   ar
    32     7     8    1
    33    12    13    1
    34    13    14    1
    35    18    19   ar
    36    19    15   ar
    37    14     9    1
    38     8     5    1
    39    34    25   ar
    40    34    29   ar
    41     1     4    1
    42    23    24    1
@<TRIPOS>MOLECULE
*****
 38 42 0 0 0
SMALL
GASTEIGER

@<TRIPOS>ATOM
      1 N         142.9160  137.4929  157.7777 N.am    1  UNL1       -0.3018
      2 C         143.4265  138.5915  156.8932 C.2     1  UNL1        0.2425
      3 O         143.4597  140.0045  157.3956 O.2     1  UNL1       -0.2733
      4 H         142.8942  136.5655  157.4479 H       1  UNL1        0.1495
      5 N         141.7637  138.2517  161.1259 N.3     1  UNL1       -0.2711
      6 C         143.0194  137.6759  160.5414 C.3     1  UNL1        0.0933
      7 C         142.4387  137.8072  159.1645 C.3     1  UNL1        0.1035
      8 C         141.1830  138.3830  159.7491 C.3     1  UNL1        0.0933
      9 C         140.3318  139.1948  165.2865 C.3     1  UNL1        0.0301
     10 C         140.0915  137.8349  164.7007 C.3     1  UNL1        0.0063
     11 C         140.5688  137.5206  163.3139 C.3     1  UNL1        0.0163
     12 C         141.2864  138.5661  162.5127 C.3     1  UNL1        0.0576
     13 C         141.5267  139.9260  163.0984 C.3     1  UNL1        0.0163
     14 C         141.0494  140.2403  164.4853 C.3     1  UNL1        0.0063
     15 C         139.7607  140.3573  168.9454 C.ar    1  UNL1        0.0879
     16 N         138.4792  139.6281  168.6696 N.ar    1  UNL1       -0.2415
     17 C         138.5371  139.1039  167.2654 C.ar    1  UNL1        0.1012
     18 C         139.8544  139.5090  166.6733 C.ar    1  UNL1        0.0271
     19 S         140.6107  140.2837  167.7116 S.2     1  UNL1       -0.0751
     20 C         139.7529  142.4758  170.4495 C.3     1  UNL1        0.0073
     21 C         140.1279  141.0402  170.2295 C.3     1  UNL1        0.0526
     22 C         143.9038  138.2772  155.5064 C.3     1  UNL1        0.1747
     23 N         144.3310  136.8819  155.1584 N.pl3   1  UNL1       -0.3093
     24 H         145.2718  136.6134  155.2679 H       1  UNL1        0.1487
     25 C         143.3246  135.8959  154.6437 C.ar    1  UNL1        0.1500
     26 N         142.2981  136.1567  153.5816 N.ar    1  UNL1       -0.1544
     27 N         141.5072  134.8979  153.3822 N.ar    1  UNL1       -0.2476
     28 C         140.3770  134.7107  152.4139 C.3     1  UNL1        0.1537
     29 C         142.0449  133.8590  154.3212 C.ar    1  UNL1        0.0807
     30 C         141.6569  132.4311  154.5669 C.ar    1  UNL1        0.0188
     31 C         142.3921  131.6200  155.5923 C.ar    1  UNL1        0.0054
     32 C         143.5153  132.2368  156.3720 C.ar    1  UNL1        0.0716
     33 C         143.9034  133.6647  156.1262 C.ar    1  UNL1        0.0082
     34 C         143.1682  134.4758  155.1008 C.ar    1  UNL1        0.0503
     35 C         144.2506  131.4256  157.3975 C.3     1  UNL1        0.4186
     36 F         144.9857  130.6144  158.4229 F       1  UNL1       -0.1659
     37 F         145.4965  132.2168  157.1301 F       1  UNL1       -0.1659
     38 F         143.0046  130.6344  157.6648 F       1  UNL1       -0.1659
@<TRIPOS>BOND
     1    20    21    1
     2    21    15    1
     3    15    16   ar
     4    16    17   ar
     5    17    18   ar
     6     9    18    1
     7     9    10    1
     8    10    11    1
     9    11    12    1
    10    12     5    1
    11     5     6    1
    12     6     7    1
    13     7     1    1
    14     1     2   am
    15     2     3    2
    16     2    22    1
    17    22    23    1
    18    23    25    1
    19    25    26   ar
    20    26    27   ar
    21    27    28    1
    22    27    29   ar
    23    29    30   ar
    24    30    31   ar
    25    31    32   ar
    26    32    35    1
    27    35    36    1
    28    35    37    1
    29    35    38    1
    30    32    33   ar
    31    33    34   ar
    32     7     8    1
    33    12    13    1
    34    13    14    1
    35    18    19   ar
    36    19    15   ar
    37    14     9    1
    38     8     5    1
    39    34    25   ar
    40    34    29   ar
    41     1     4    1
    42    23    24    1
@<TRIPOS>MOLECULE
*****
 38 42 0 0 0
SMALL
GASTEIGER

@<TRIPOS>ATOM
      1 N         142.9162  137.4078  158.1566 N.am    1  UNL1       -0.3018
      2 C         141.6954  137.4202  157.2852 C.2     1  UNL1        0.2425
      3 O         140.3907  137.9223  157.8289 O.2     1  UNL1       -0.2733
      4 H         143.7725  137.0782  157.7997 H       1  UNL1        0.1495
      5 N         142.7137  138.5904  161.5734 N.3     1  UNL1       -0.2711
      6 C         143.5743  137.6033  160.8420 C.3     1  UNL1        0.0933
      7 C         142.8323  137.8977  159.5719 C.3     1  UNL1        0.1035
      8 C         141.9718  138.8847  160.3034 C.3     1  UNL1        0.0933
      9 C         142.4620  140.0600  165.8193 C.3     1  UNL1        0.0301
     10 C         143.4368  140.6850  164.8657 C.3     1  UNL1        0.0063
     11 C         143.5207  140.1952  163.4505 C.3     1  UNL1        0.0163
     12 C         142.6298  139.0803  162.9887 C.3     1  UNL1        0.0576
     13 C         141.6550  138.4553  163.9422 C.3     1  UNL1        0.0163
     14 C         141.5711  138.9452  165.3574 C.3     1  UNL1        0.0063
     15 C         142.0934  141.9945  169.1640 C.ar    1  UNL1        0.0879
     16 N         142.4049  140.6138  169.6606 N.ar    1  UNL1       -0.2415
     17 C         142.5809  139.7210  168.4681 C.ar    1  UNL1        0.1012
     18 C         142.3782  140.5500  167.2345 C.ar    1  UNL1        0.0271
     19 S         142.0768  141.9551  167.6646 S.2     1  UNL1       -0.0751
     20 C         140.5150  143.8987  169.9595 C.3     1  UNL1        0.0073
     21 C         141.8424  143.2026  170.0170 C.3     1  UNL1        0.0526
     22 C         141.7793  136.9303  155.8699 C.3     1  UNL1        0.1747
     23 N         141.4444  135.5037  155.5489 N.pl3   1  UNL1       -0.3093
     24 H         140.6761  135.2969  154.9691 H       1  UNL1        0.1487
     25 C         142.2802  134.3923  156.1113 C.ar    1  UNL1        0.1500
     26 N         143.4430  134.5496  157.0457 N.ar    1  UNL1       -0.1544
     27 N         143.9813  133.1830  157.3498 N.ar    1  UNL1       -0.2476
     28 C         145.1454  132.8727  158.2435 C.3     1  UNL1        0.1537
     29 C         143.1513  132.1811  156.6034 C.ar    1  UNL1        0.0807
     30 C         143.2170  130.6848  156.5218 C.ar    1  UNL1        0.0188
     31 C         142.2313  129.9359  155.6748 C.ar    1  UNL1        0.0054
     32 C         141.1799  130.6833  154.9093 C.ar    1  UNL1        0.0716
     33 C         141.1142  132.1796  154.9908 C.ar    1  UNL1        0.0082
     34 C         142.0999  132.9285  155.8379 C.ar    1  UNL1        0.0503
     35 C         140.1942  129.9343  154.0622 C.3     1  UNL1        0.4186
     36 F         139.2086  129.1854  153.2151 F       1  UNL1       -0.1659
     37 F         139.2156  129.9365  155.1990 F       1  UNL1       -0.1659
     38 F         141.1728  129.9321  152.9255 F       1  UNL1       -0.1659
@<TRIPOS>BOND
     1    20    21    1
     2    21    15    1
     3    15    16   ar
     4    16    17   ar
     5    17    18   ar
     6     9    18    1
     7     9    10    1
     8    10    11    1
     9    11    12    1
    10    12     5    1
    11     5     6    1
    12     6     7    1
    13     7     1    1
    14     1     2   am
    15     2     3    2
    16     2    22    1
    17    22    23    1
    18    23    25    1
    19    25    26   ar
    20    26    27   ar
    21    27    28    1
    22    27    29   ar
    23    29    30   ar
    24    30    31   ar
    25    31    32   ar
    26    32    35    1
    27    35    36    1
    28    35    37    1
    29    35    38    1
    30    32    33   ar
    31    33    34   ar
    32     7     8    1
    33    12    13    1
    34    13    14    1
    35    18    19   ar
    36    19    15   ar
    37    14     9    1
    38     8     5    1
    39    34    25   ar
    40    34    29   ar
    41     1     4    1
    42    23    24    1
@<TRIPOS>MOLECULE
*****
 38 42 0 0 0
SMALL
GASTEIGER

@<TRIPOS>ATOM
      1 N         142.6118  137.4344  157.8993 N.am    1  UNL1       -0.3018
      2 C         143.3328  138.2460  156.8642 C.2     1  UNL1        0.2425
      3 O         144.0137  139.5244  157.2540 O.2     1  UNL1       -0.2733
      4 H         142.1649  136.5953  157.6434 H       1  UNL1        0.1495
      5 N         142.5150  138.5615  161.3394 N.3     1  UNL1       -0.2711
      6 C         141.7580  138.9021  160.0900 C.3     1  UNL1        0.0933
      7 C         142.5717  137.9012  159.3242 C.3     1  UNL1        0.1035
      8 C         143.3286  137.5607  160.5736 C.3     1  UNL1        0.0933
      9 C         142.3948  139.9621  165.6142 C.3     1  UNL1        0.0301
     10 C         141.6237  138.7431  165.2023 C.3     1  UNL1        0.0063
     11 C         141.6638  138.2763  163.7774 C.3     1  UNL1        0.0163
     12 C         142.4749  139.0284  162.7643 C.3     1  UNL1        0.0576
     13 C         143.2460  140.2473  163.1761 C.3     1  UNL1        0.0163
     14 C         143.2059  140.7142  164.6011 C.3     1  UNL1        0.0063
     15 C         142.0783  141.8284  169.0027 C.ar    1  UNL1        0.0879
     16 N         142.5073  140.4661  169.4611 N.ar    1  UNL1       -0.2415
     17 C         142.6781  139.6012  168.2476 C.ar    1  UNL1        0.1012
     18 C         142.3546  140.4288  167.0391 C.ar    1  UNL1        0.0271
     19 S         141.9839  141.8054  167.5058 S.2     1  UNL1       -0.0751
     20 C         140.5124  143.7707  169.7277 C.3     1  UNL1        0.0073
     21 C         141.7935  143.0069  169.8860 C.3     1  UNL1        0.0526
     22 C         143.3729  137.7791  155.4393 C.3     1  UNL1        0.1747
     23 N         144.0075  136.4632  155.0987 N.pl3   1  UNL1       -0.3093
     24 H         144.9770  136.3392  155.2163 H       1  UNL1        0.1487
     25 C         143.1648  135.3364  154.5789 C.ar    1  UNL1        0.1500
     26 N         142.1644  135.4248  153.4648 N.ar    1  UNL1       -0.1544
     27 N         141.5559  134.0663  153.2794 N.ar    1  UNL1       -0.2476
     28 C         140.5072  133.7001  152.2714 C.3     1  UNL1        0.1537
     29 C         142.1803  133.1384  154.2789 C.ar    1  UNL1        0.0807
     30 C         141.9719  131.6801  154.5615 C.ar    1  UNL1        0.0188
     31 C         142.7578  131.0068  155.6473 C.ar    1  UNL1        0.0054
     32 C         143.7522  131.7917  156.4504 C.ar    1  UNL1        0.0716
     33 C         143.9606  133.2500  156.1679 C.ar    1  UNL1        0.0082
     34 C         143.1747  133.9233  155.0821 C.ar    1  UNL1        0.0503
     35 C         144.5381  131.1183  157.5362 C.3     1  UNL1        0.4186
     36 F         145.3241  130.4450  158.6220 F       1  UNL1       -0.1659
     37 F         143.4453  130.1036  157.6980 F       1  UNL1       -0.1659
     38 F         145.6309  132.1330  157.3745 F       1  UNL1       -0.1659
@<TRIPOS>BOND
     1    20    21    1
     2    21    15    1
     3    15    16   ar
     4    16    17   ar
     5    17    18   ar
     6     9    18    1
     7     9    10    1
     8    10    11    1
     9    11    12    1
    10    12     5    1
    11     5     6    1
    12     6     7    1
    13     7     1    1
    14     1     2   am
    15     2     3    2
    16     2    22    1
    17    22    23    1
    18    23    25    1
    19    25    26   ar
    20    26    27   ar
    21    27    28    1
    22    27    29   ar
    23    29    30   ar
    24    30    31   ar
    25    31    32   ar
    26    32    35    1
    27    35    36    1
    28    35    37    1
    29    35    38    1
    30    32    33   ar
    31    33    34   ar
    32     7     8    1
    33    12    13    1
    34    13    14    1
    35    18    19   ar
    36    19    15   ar
    37    14     9    1
    38     8     5    1
    39    34    25   ar
    40    34    29   ar
    41     1     4    1
    42    23    24    1
@<TRIPOS>MOLECULE
*****
 38 42 0 0 0
SMALL
GASTEIGER

@<TRIPOS>ATOM
      1 N         138.9340  141.3724  163.8500 N.am    1  UNL1       -0.3018
      2 C         138.3270  140.0008  163.8488 C.2     1  UNL1        0.2425
      3 O         137.9545  139.3465  162.5515 O.2     1  UNL1       -0.2733
      4 H         139.1785  141.8018  164.7015 H       1  UNL1        0.1495
      5 N         139.5006  143.1042  160.7205 N.3     1  UNL1       -0.2711
      6 C         140.2301  142.0466  161.4946 C.3     1  UNL1        0.0933
      7 C         139.1687  142.0898  162.5537 C.3     1  UNL1        0.1035
      8 C         138.4392  143.1474  161.7796 C.3     1  UNL1        0.0933
      9 C         140.2044  145.2563  156.8316 C.3     1  UNL1        0.0301
     10 C         140.7113  145.8428  158.1159 C.3     1  UNL1        0.0063
     11 C         140.4767  145.1255  159.4121 C.3     1  UNL1        0.0163
     12 C         139.7352  143.8216  159.4242 C.3     1  UNL1        0.0576
     13 C         139.2283  143.2351  158.1400 C.3     1  UNL1        0.0163
     14 C         139.4630  143.9525  156.8437 C.3     1  UNL1        0.0063
     15 C         140.3930  147.6573  153.7878 C.ar    1  UNL1        0.0879
     16 N         141.2074  146.4986  153.2938 N.ar    1  UNL1       -0.2415
     17 C         141.2359  145.4581  154.3739 C.ar    1  UNL1        0.1012
     18 C         140.4391  145.9738  155.5355 C.ar    1  UNL1        0.0271
     19 S         139.9181  147.3330  155.1732 S.2     1  UNL1       -0.0751
     20 C         140.8403  150.1817  153.3662 C.3     1  UNL1        0.0073
     21 C         140.1040  148.9190  153.0296 C.3     1  UNL1        0.0526
     22 C         138.0923  139.2834  165.1451 C.3     1  UNL1        0.1747
     23 N         139.2459  138.6707  165.8828 N.pl3   1  UNL1       -0.3093
     24 H         139.1405  137.7961  166.3222 H       1  UNL1        0.1487
     25 C         140.5600  139.3908  165.9509 C.ar    1  UNL1        0.1500
     26 N         141.7381  139.1626  165.0509 N.ar    1  UNL1       -0.1544
     27 N         142.8329  140.0962  165.4748 N.ar    1  UNL1       -0.2476
     28 C         144.1908  140.2055  164.8469 C.3     1  UNL1        0.1537
     29 C         142.3315  140.9015  166.6367 C.ar    1  UNL1        0.0807
     30 C         142.9725  141.9753  167.4648 C.ar    1  UNL1        0.0188
     31 C         142.2088  142.6132  168.5872 C.ar    1  UNL1        0.0054
     32 C         140.8041  142.1772  168.8815 C.ar    1  UNL1        0.0716
     33 C         140.1630  141.1034  168.0534 C.ar    1  UNL1        0.0082
     34 C         140.9267  140.4655  166.9310 C.ar    1  UNL1        0.0503
     35 C         140.0403  142.8152  170.0039 C.3     1  UNL1        0.4186
     36 F         139.2766  143.4531  171.1263 F       1  UNL1       -0.1659
     37 F         140.9129  144.0314  169.9065 F       1  UNL1       -0.1659
     38 F         139.1677  141.5991  170.1014 F       1  UNL1       -0.1659
@<TRIPOS>BOND
     1    20    21    1
     2    21    15    1
     3    15    16   ar
     4    16    17   ar
     5    17    18   ar
     6     9    18    1
     7     9    10    1
     8    10    11    1
     9    11    12    1
    10    12     5    1
    11     5     6    1
    12     6     7    1
    13     7     1    1
    14     1     2   am
    15     2     3    2
    16     2    22    1
    17    22    23    1
    18    23    25    1
    19    25    26   ar
    20    26    27   ar
    21    27    28    1
    22    27    29   ar
    23    29    30   ar
    24    30    31   ar
    25    31    32   ar
    26    32    35    1
    27    35    36    1
    28    35    37    1
    29    35    38    1
    30    32    33   ar
    31    33    34   ar
    32     7     8    1
    33    12    13    1
    34    13    14    1
    35    18    19   ar
    36    19    15   ar
    37    14     9    1
    38     8     5    1
    39    34    25   ar
    40    34    29   ar
    41     1     4    1
    42    23    24    1
@<TRIPOS>MOLECULE
*****
 38 42 0 0 0
SMALL
GASTEIGER

@<TRIPOS>ATOM
      1 N         139.2687  141.8148  162.3947 N.am    1  UNL1       -0.3018
      2 C         138.2740  142.9068  162.1341 C.2     1  UNL1        0.2425
      3 O         137.6636  143.0560  160.7720 O.2     1  UNL1       -0.2733
      4 H         139.6693  141.7169  163.2887 H       1  UNL1        0.1495
      5 N         140.1965  139.5383  159.7356 N.3     1  UNL1       -0.2711
      6 C         139.4366  139.4123  161.0228 C.3     1  UNL1        0.0933
      7 C         139.6530  140.8719  161.2933 C.3     1  UNL1        0.1035
      8 C         140.4128  140.9977  160.0061 C.3     1  UNL1        0.0933
      9 C         141.3494  136.7095  156.4312 C.3     1  UNL1        0.0301
     10 C         139.9667  137.2895  156.4738 C.3     1  UNL1        0.0063
     11 C         139.5824  138.2323  157.5752 C.3     1  UNL1        0.0163
     12 C         140.5808  138.5954  158.6342 C.3     1  UNL1        0.0576
     13 C         141.9635  138.0155  158.5916 C.3     1  UNL1        0.0163
     14 C         142.3478  137.0726  157.4902 C.3     1  UNL1        0.0063
     15 C         142.4172  133.7663  154.1372 C.ar    1  UNL1        0.0879
     16 N         142.2326  134.8647  153.1324 N.ar    1  UNL1       -0.2415
     17 C         141.8102  136.1009  153.8695 C.ar    1  UNL1        0.1012
     18 C         141.7336  135.7667  155.3298 C.ar    1  UNL1        0.0271
     19 S         142.1088  134.3237  155.4952 S.2     1  UNL1       -0.0751
     20 C         143.6170  131.5750  154.8507 C.3     1  UNL1        0.0073
     21 C         142.8365  132.3578  153.8367 C.3     1  UNL1        0.0526
     22 C         137.8896  143.8498  163.2355 C.3     1  UNL1        0.1747
     23 N         138.8733  144.8704  163.7264 N.pl3   1  UNL1       -0.3093
     24 H         138.5723  145.7849  163.9324 H       1  UNL1        0.1487
     25 C         140.3154  144.4977  163.9034 C.ar    1  UNL1        0.1500
     26 N         141.4471  144.9021  163.0058 N.ar    1  UNL1       -0.1544
     27 N         142.7102  144.3095  163.5568 N.ar    1  UNL1       -0.2476
     28 C         144.0833  144.4610  162.9723 C.3     1  UNL1        0.1537
     29 C         142.3591  143.5389  164.7948 C.ar    1  UNL1        0.0807
     30 C         143.1958  142.7463  165.7548 C.ar    1  UNL1        0.0188
     31 C         142.5525  142.0700  166.9290 C.ar    1  UNL1        0.0054
     32 C         141.0725  142.1863  167.1432 C.ar    1  UNL1        0.0716
     33 C         140.2357  142.9789  166.1833 C.ar    1  UNL1        0.0082
     34 C         140.8790  143.6552  165.0091 C.ar    1  UNL1        0.0503
     35 C         140.4292  141.5100  168.3175 C.3     1  UNL1        0.4186
     36 F         139.7859  140.8336  169.4916 F       1  UNL1       -0.1659
     37 F         141.1896  142.4056  169.2500 F       1  UNL1       -0.1659
     38 F         139.6688  140.6143  167.3850 F       1  UNL1       -0.1659
@<TRIPOS>BOND
     1    20    21    1
     2    21    15    1
     3    15    16   ar
     4    16    17   ar
     5    17    18   ar
     6     9    18    1
     7     9    10    1
     8    10    11    1
     9    11    12    1
    10    12     5    1
    11     5     6    1
    12     6     7    1
    13     7     1    1
    14     1     2   am
    15     2     3    2
    16     2    22    1
    17    22    23    1
    18    23    25    1
    19    25    26   ar
    20    26    27   ar
    21    27    28    1
    22    27    29   ar
    23    29    30   ar
    24    30    31   ar
    25    31    32   ar
    26    32    35    1
    27    35    36    1
    28    35    37    1
    29    35    38    1
    30    32    33   ar
    31    33    34   ar
    32     7     8    1
    33    12    13    1
    34    13    14    1
    35    18    19   ar
    36    19    15   ar
    37    14     9    1
    38     8     5    1
    39    34    25   ar
    40    34    29   ar
    41     1     4    1
    42    23    24    1
@<TRIPOS>MOLECULE
*****
 38 42 0 0 0
SMALL
GASTEIGER

@<TRIPOS>ATOM
      1 N         140.0815  143.3525  158.9597 N.am    1  UNL1       -0.3018
      2 C         141.1220  144.3414  159.3949 C.2     1  UNL1        0.2425
      3 O         142.5737  143.9650  159.3642 O.2     1  UNL1       -0.2733
      4 H         139.1287  143.5996  158.9798 H       1  UNL1        0.1495
      5 N         141.0741  140.0565  157.8351 N.3     1  UNL1       -0.2711
      6 C         140.1306  140.5826  158.8758 C.3     1  UNL1        0.0933
      7 C         140.4927  141.9873  158.4939 C.3     1  UNL1        0.1035
      8 C         141.4362  141.4611  157.4533 C.3     1  UNL1        0.0933
      9 C         142.3077  135.9607  156.4376 C.3     1  UNL1        0.0301
     10 C         142.9707  136.5762  157.6341 C.3     1  UNL1        0.0063
     11 C         142.5595  137.9414  158.0999 C.3     1  UNL1        0.0163
     12 C         141.4853  138.6912  157.3693 C.3     1  UNL1        0.0576
     13 C         140.8223  138.0757  156.1728 C.3     1  UNL1        0.0163
     14 C         141.2335  136.7105  155.7069 C.3     1  UNL1        0.0063
     15 C         143.8498  132.4537  155.8146 C.ar    1  UNL1        0.0879
     16 N         142.8540  132.5353  154.6958 N.ar    1  UNL1       -0.2415
     17 C         142.1551  133.8590  154.7930 C.ar    1  UNL1        0.1012
     18 C         142.7189  134.5955  155.9718 C.ar    1  UNL1        0.0271
     19 S         143.7664  133.7269  156.6033 S.2     1  UNL1       -0.0751
     20 C         144.8263  130.7069  157.4715 C.3     1  UNL1        0.0073
     21 C         144.7680  131.3012  156.0956 C.3     1  UNL1        0.0526
     22 C         140.7108  145.7066  159.8607 C.3     1  UNL1        0.1747
     23 N         140.1841  145.8972  161.2523 N.pl3   1  UNL1       -0.3093
     24 H         140.1139  146.8027  161.6324 H       1  UNL1        0.1487
     25 C         139.7642  144.7082  162.0647 C.ar    1  UNL1        0.1500
     26 N         138.4560  143.9827  161.9546 N.ar    1  UNL1       -0.1544
     27 N         138.4622  142.8620  162.9517 N.ar    1  UNL1       -0.2476
     28 C         137.3514  141.8807  163.1821 C.3     1  UNL1        0.1537
     29 C         139.7742  142.8950  163.6780 C.ar    1  UNL1        0.0807
     30 C         140.3402  142.0334  164.7676 C.ar    1  UNL1        0.0188
     31 C         141.7108  142.3129  165.3091 C.ar    1  UNL1        0.0054
     32 C         142.5155  143.4539  164.7609 C.ar    1  UNL1        0.0716
     33 C         141.9496  144.3154  163.6712 C.ar    1  UNL1        0.0082
     34 C         140.5790  144.0360  163.1298 C.ar    1  UNL1        0.0503
     35 C         143.8862  143.7333  165.3024 C.3     1  UNL1        0.4186
     36 F         145.2569  144.0127  165.8439 F       1  UNL1       -0.1659
     37 F         144.1081  144.7461  164.2184 F       1  UNL1       -0.1659
     38 F         143.6644  142.7206  166.3864 F       1  UNL1       -0.1659
@<TRIPOS>BOND
     1    20    21    1
     2    21    15    1
     3    15    16   ar
     4    16    17   ar
     5    17    18   ar
     6     9    18    1
     7     9    10    1
     8    10    11    1
     9    11    12    1
    10    12     5    1
    11     5     6    1
    12     6     7    1
    13     7     1    1
    14     1     2   am
    15     2     3    2
    16     2    22    1
    17    22    23    1
    18    23    25    1
    19    25    26   ar
    20    26    27   ar
    21    27    28    1
    22    27    29   ar
    23    29    30   ar
    24    30    31   ar
    25    31    32   ar
    26    32    35    1
    27    35    36    1
    28    35    37    1
    29    35    38    1
    30    32    33   ar
    31    33    34   ar
    32     7     8    1
    33    12    13    1
    34    13    14    1
    35    18    19   ar
    36    19    15   ar
    37    14     9    1
    38     8     5    1
    39    34    25   ar
    40    34    29   ar
    41     1     4    1
    42    23    24    1
@<TRIPOS>MOLECULE
*****
 38 42 0 0 0
SMALL
GASTEIGER

@<TRIPOS>ATOM
      1 N         140.1270  140.4283  161.0563 N.am    1  UNL1       -0.3018
      2 C         138.9061  139.6947  160.5863 C.2     1  UNL1        0.2425
      3 O         138.8423  139.1655  159.1842 O.2     1  UNL1       -0.2733
      4 H         140.1688  140.7756  161.9765 H       1  UNL1        0.1495
      5 N         142.9211  140.9216  158.8059 N.3     1  UNL1       -0.2711
      6 C         142.6747  140.0789  160.0221 C.3     1  UNL1        0.0933
      7 C         141.2843  140.6327  160.1241 C.3     1  UNL1        0.1035
      8 C         141.5308  141.4754  158.9080 C.3     1  UNL1        0.0933
      9 C         146.3930  141.5348  156.0095 C.3     1  UNL1        0.0301
     10 C         146.1713  142.4843  157.1494 C.3     1  UNL1        0.0063
     11 C         145.0140  142.2799  158.0815 C.3     1  UNL1        0.0163
     12 C         144.0784  141.1260  157.8738 C.3     1  UNL1        0.0576
     13 C         144.3001  140.1765  156.7339 C.3     1  UNL1        0.0163
     14 C         145.4574  140.3809  155.8018 C.3     1  UNL1        0.0063
     15 C         149.8071  141.9864  154.2192 C.ar    1  UNL1        0.0879
     16 N         148.8557  142.1214  153.0673 N.ar    1  UNL1       -0.2415
     17 C         147.4610  141.9687  153.5978 C.ar    1  UNL1        0.1012
     18 C         147.5503  141.7393  155.0775 C.ar    1  UNL1        0.0271
     19 S         149.0004  141.7502  155.4615 S.2     1  UNL1       -0.0751
     20 C         151.9563  142.7372  152.9672 C.3     1  UNL1        0.0073
     21 C         151.3027  142.0724  154.1423 C.3     1  UNL1        0.0526
     22 C         137.7487  139.4903  161.5184 C.3     1  UNL1        0.1747
     23 N         137.0646  140.6741  162.1356 N.pl3   1  UNL1       -0.3093
     24 H         136.0871  140.6723  162.2520 H       1  UNL1        0.1487
     25 C         137.8701  141.8607  162.5753 C.ar    1  UNL1        0.1500
     26 N         138.0754  143.1251  161.7950 N.ar    1  UNL1       -0.1544
     27 N         138.9438  144.0369  162.6101 N.ar    1  UNL1       -0.2476
     28 C         139.4006  145.4089  162.2111 C.3     1  UNL1        0.1537
     29 C         139.2752  143.3361  163.8942 C.ar    1  UNL1        0.0807
     30 C         140.0955  143.7488  165.0802 C.ar    1  UNL1        0.0188
     31 C         140.2522  142.8166  166.2448 C.ar    1  UNL1        0.0054
     32 C         139.5886  141.4715  166.2233 C.ar    1  UNL1        0.0716
     33 C         138.7683  141.0587  165.0373 C.ar    1  UNL1        0.0082
     34 C         138.6116  141.9910  163.8727 C.ar    1  UNL1        0.0503
     35 C         139.7453  140.5392  167.3879 C.3     1  UNL1        0.4186
     36 F         139.9020  139.6069  168.5525 F       1  UNL1       -0.1659
     37 F         139.9640  141.7119  168.2973 F       1  UNL1       -0.1659
     38 F         139.5266  139.3665  166.4786 F       1  UNL1       -0.1659
@<TRIPOS>BOND
     1    20    21    1
     2    21    15    1
     3    15    16   ar
     4    16    17   ar
     5    17    18   ar
     6     9    18    1
     7     9    10    1
     8    10    11    1
     9    11    12    1
    10    12     5    1
    11     5     6    1
    12     6     7    1
    13     7     1    1
    14     1     2   am
    15     2     3    2
    16     2    22    1
    17    22    23    1
    18    23    25    1
    19    25    26   ar
    20    26    27   ar
    21    27    28    1
    22    27    29   ar
    23    29    30   ar
    24    30    31   ar
    25    31    32   ar
    26    32    35    1
    27    35    36    1
    28    35    37    1
    29    35    38    1
    30    32    33   ar
    31    33    34   ar
    32     7     8    1
    33    12    13    1
    34    13    14    1
    35    18    19   ar
    36    19    15   ar
    37    14     9    1
    38     8     5    1
    39    34    25   ar
    40    34    29   ar
    41     1     4    1
    42    23    24    1
@<TRIPOS>MOLECULE
*****
 38 42 0 0 0
SMALL
GASTEIGER

@<TRIPOS>ATOM
      1 N         140.2457  139.6962  161.3768 N.am    1  UNL1       -0.3018
      2 C         140.2503  138.3343  162.0054 C.2     1  UNL1        0.2425
      3 O         141.3616  137.3729  161.7043 O.2     1  UNL1       -0.2733
      4 H         139.5163  140.3271  161.5745 H       1  UNL1        0.1495
      5 N         142.9181  140.6632  159.1324 N.3     1  UNL1       -0.2711
      6 C         142.8503  140.1205  160.5291 C.3     1  UNL1        0.0933
      7 C         141.3526  140.0967  160.4471 C.3     1  UNL1        0.1035
      8 C         141.4205  140.6393  159.0504 C.3     1  UNL1        0.0933
      9 C         146.2387  141.8648  156.3432 C.3     1  UNL1        0.0301
     10 C         145.4200  140.6421  156.0519 C.3     1  UNL1        0.0063
     11 C         144.3132  140.2416  156.9815 C.3     1  UNL1        0.0163
     12 C         144.0250  141.0637  158.2026 C.3     1  UNL1        0.0576
     13 C         144.8436  142.2864  158.4940 C.3     1  UNL1        0.0163
     14 C         145.9505  142.6869  157.5643 C.3     1  UNL1        0.0063
     15 C         149.5062  142.3883  154.3148 C.ar    1  UNL1        0.0879
     16 N         148.5917  143.3744  153.6506 N.ar    1  UNL1       -0.2415
     17 C         147.2563  143.2984  154.3295 C.ar    1  UNL1        0.1012
     18 C         147.3455  142.2652  155.4134 C.ar    1  UNL1        0.0271
     19 S         148.7361  141.7028  155.4043 S.2     1  UNL1       -0.0751
     20 C         151.4048  140.7339  153.6755 C.3     1  UNL1        0.0073
     21 C         150.9394  142.1326  153.9530 C.3     1  UNL1        0.0526
     22 C         139.1434  137.9337  162.9351 C.3     1  UNL1        0.1747
     23 N         138.3220  138.9854  163.6204 N.pl3   1  UNL1       -0.3093
     24 H         137.4086  139.1779  163.3077 H       1  UNL1        0.1487
     25 C         138.8925  139.7436  164.7822 C.ar    1  UNL1        0.1500
     26 N         139.3114  139.1571  166.0977 N.ar    1  UNL1       -0.1544
     27 N         139.8220  140.2726  166.9608 N.ar    1  UNL1       -0.2476
     28 C         140.3443  140.1362  168.3604 C.3     1  UNL1        0.1537
     29 C         139.7186  141.5485  166.1789 C.ar    1  UNL1        0.0807
     30 C         140.0733  142.9656  166.5189 C.ar    1  UNL1        0.0188
     31 C         139.8536  144.0559  165.5125 C.ar    1  UNL1        0.0054
     32 C         139.2791  143.7290  164.1660 C.ar    1  UNL1        0.0716
     33 C         138.9244  142.3118  163.8259 C.ar    1  UNL1        0.0082
     34 C         139.1441  141.2215  164.8323 C.ar    1  UNL1        0.0503
     35 C         139.0594  144.8194  163.1595 C.3     1  UNL1        0.4186
     36 F         138.8396  145.9097  162.1531 F       1  UNL1       -0.1659
     37 F         140.4938  145.2356  163.2972 F       1  UNL1       -0.1659
     38 F         137.6249  144.4031  163.0218 F       1  UNL1       -0.1659
@<TRIPOS>BOND
     1    20    21    1
     2    21    15    1
     3    15    16   ar
     4    16    17   ar
     5    17    18   ar
     6     9    18    1
     7     9    10    1
     8    10    11    1
     9    11    12    1
    10    12     5    1
    11     5     6    1
    12     6     7    1
    13     7     1    1
    14     1     2   am
    15     2     3    2
    16     2    22    1
    17    22    23    1
    18    23    25    1
    19    25    26   ar
    20    26    27   ar
    21    27    28    1
    22    27    29   ar
    23    29    30   ar
    24    30    31   ar
    25    31    32   ar
    26    32    35    1
    27    35    36    1
    28    35    37    1
    29    35    38    1
    30    32    33   ar
    31    33    34   ar
    32     7     8    1
    33    12    13    1
    34    13    14    1
    35    18    19   ar
    36    19    15   ar
    37    14     9    1
    38     8     5    1
    39    34    25   ar
    40    34    29   ar
    41     1     4    1
    42    23    24    1
