@<TRIPOS>MOLECULE
*****
 32 36 0 0 0
SMALL
GASTEIGER

@<TRIPOS>ATOM
      1 C         141.5513  138.7367  162.0779 C.ar    1  UNL1        0.0541
      2 C         142.7491  137.8606  161.8594 C.ar    1  UNL1        0.0180
      3 C         143.2608  137.6227  160.4696 C.ar    1  UNL1        0.0382
      4 C         142.5747  138.2608  159.2983 C.ar    1  UNL1        0.1385
      5 C         141.3770  139.1369  159.5167 C.ar    1  UNL1        0.0382
      6 C         140.8653  139.3749  160.9065 C.ar    1  UNL1        0.0180
      7 O         138.2116  139.0682  168.0767 O.2     1  UNL1       -0.2699
      8 C         139.5045  139.6887  167.6370 C.2     1  UNL1        0.2494
      9 N         140.0162  139.4507  166.2473 N.am    1  UNL1       -0.2660
     10 C         141.3092  140.0712  165.8076 C.3     1  UNL1        0.1160
     11 C         141.8209  139.8331  164.4177 C.3     1  UNL1        0.1197
     12 N         141.0396  138.9747  163.4676 N.am    1  UNL1       -0.2555
     13 C         139.7467  138.3542  163.9073 C.2     1  UNL1        0.2497
     14 O         138.9655  137.4958  162.9572 O.2     1  UNL1       -0.2727
     15 C         139.2350  138.5922  165.2971 C.3     1  UNL1        0.1799
     16 C         140.2858  140.5471  168.5872 C.ar    1  UNL1        0.0536
     17 C         140.1786  142.0412  168.5094 C.ar    1  UNL1        0.0045
     18 C         140.9598  142.8996  169.4596 C.ar    1  UNL1        0.0001
     19 C         141.8482  142.2639  170.4874 C.ar    1  UNL1        0.0000
     20 C         141.9554  140.7698  170.5652 C.ar    1  UNL1        0.0001
     21 C         141.1742  139.9114  169.6151 C.ar    1  UNL1        0.0045
     22 O         143.0865  138.0228  157.9085 O.3     1  UNL1       -0.4791
     23 C         142.6722  136.7924  157.1572 C.3     1  UNL1        0.1687
     24 C         141.5882  136.8741  156.1237 C.3     1  UNL1        0.0609
     25 C         141.1739  135.6437  155.3724 C.3     1  UNL1        0.0758
     26 N         141.8437  134.3316  155.6545 N.3     1  UNL1       -0.2737
     27 C         142.9278  134.2498  156.6881 C.3     1  UNL1        0.0758
     28 C         143.3421  135.4802  157.4394 C.3     1  UNL1        0.0609
     29 C         141.4295  133.1012  154.9032 C.3     1  UNL1        0.0575
     30 C         141.2506  131.6539  155.2543 C.3     1  UNL1        0.0160
     31 C         140.8436  131.3612  153.8407 C.3     1  UNL1        0.0028
     32 C         141.0225  132.8084  153.4894 C.3     1  UNL1        0.0160
@<TRIPOS>BOND
     1     7     8    2
     2     8    16    1
     3    16    17   ar
     4    17    18   ar
     5    18    19   ar
     6    19    20   ar
     7    20    21   ar
     8     8     9   am
     9     9    10    1
    10    10    11    1
    11    11    12    1
    12    12     1    1
    13     1     2   ar
    14     2     3   ar
    15     3     4   ar
    16     4    22    1
    17    22    23    1
    18    23    24    1
    19    24    25    1
    20    25    26    1
    21    26    29    1
    22    29    30    1
    23    30    31    1
    24    31    32    1
    25    26    27    1
    26    27    28    1
    27     4     5   ar
    28     5     6   ar
    29    12    13   am
    30    13    14    2
    31    13    15    1
    32    21    16   ar
    33    15     9    1
    34     6     1   ar
    35    28    23    1
    36    32    29    1
@<TRIPOS>MOLECULE
*****
 32 36 0 0 0
SMALL
GASTEIGER

@<TRIPOS>ATOM
      1 C         139.6397  141.6025  161.7314 C.ar    1  UNL1        0.0541
      2 C         140.6859  141.0309  160.8211 C.ar    1  UNL1        0.0180
      3 C         140.6173  141.2881  159.3449 C.ar    1  UNL1        0.0382
      4 C         139.5025  142.1170  158.7790 C.ar    1  UNL1        0.1385
      5 C         138.4563  142.6887  159.6893 C.ar    1  UNL1        0.0382
      6 C         138.5249  142.4315  161.1655 C.ar    1  UNL1        0.0180
      7 O         139.0395  139.5245  168.2561 O.2     1  UNL1       -0.2699
      8 C         139.9140  140.5737  167.6361 C.2     1  UNL1        0.2494
      9 N         139.8454  140.8309  166.1600 N.am    1  UNL1       -0.2660
     10 C         140.7200  141.8802  165.5401 C.3     1  UNL1        0.1160
     11 C         140.6514  142.1374  164.0638 C.3     1  UNL1        0.1197
     12 N         139.7083  141.3453  163.2076 N.am    1  UNL1       -0.2555
     13 C         138.8337  140.2961  163.8275 C.2     1  UNL1        0.2497
     14 O         137.8907  139.5041  162.9712 O.2     1  UNL1       -0.2727
     15 C         138.9023  140.0389  165.3036 C.3     1  UNL1        0.1799
     16 C         140.8571  141.3658  168.4925 C.ar    1  UNL1        0.0536
     17 C         140.4055  142.6558  169.1105 C.ar    1  UNL1        0.0045
     18 C         141.3486  143.4477  169.9668 C.ar    1  UNL1        0.0001
     19 C         142.7434  142.9497  170.2050 C.ar    1  UNL1        0.0000
     20 C         143.1950  141.6598  169.5870 C.ar    1  UNL1        0.0001
     21 C         142.2519  140.8678  168.7308 C.ar    1  UNL1        0.0045
     22 O         139.4340  142.3742  157.3029 O.3     1  UNL1       -0.4791
     23 C         139.4063  143.7826  156.7874 C.3     1  UNL1        0.1687
     24 C         138.3901  144.1855  155.7603 C.3     1  UNL1        0.0609
     25 C         138.3624  145.5939  155.2449 C.3     1  UNL1        0.0758
     26 N         139.3508  146.5994  155.7566 N.3     1  UNL1       -0.2737
     27 C         140.3671  146.1965  156.7838 C.3     1  UNL1        0.0758
     28 C         140.3948  144.7881  157.2992 C.3     1  UNL1        0.0609
     29 C         139.3231  148.0078  155.2412 C.3     1  UNL1        0.0575
     30 C         138.6792  149.2875  155.6857 C.3     1  UNL1        0.0160
     31 C         139.2840  149.9995  154.5123 C.3     1  UNL1        0.0028
     32 C         139.9279  148.7199  154.0676 C.3     1  UNL1        0.0160
@<TRIPOS>BOND
     1     7     8    2
     2     8    16    1
     3    16    17   ar
     4    17    18   ar
     5    18    19   ar
     6    19    20   ar
     7    20    21   ar
     8     8     9   am
     9     9    10    1
    10    10    11    1
    11    11    12    1
    12    12     1    1
    13     1     2   ar
    14     2     3   ar
    15     3     4   ar
    16     4    22    1
    17    22    23    1
    18    23    24    1
    19    24    25    1
    20    25    26    1
    21    26    29    1
    22    29    30    1
    23    30    31    1
    24    31    32    1
    25    26    27    1
    26    27    28    1
    27     4     5   ar
    28     5     6   ar
    29    12    13   am
    30    13    14    2
    31    13    15    1
    32    21    16   ar
    33    15     9    1
    34     6     1   ar
    35    28    23    1
    36    32    29    1
@<TRIPOS>MOLECULE
*****
 32 36 0 0 0
SMALL
GASTEIGER

@<TRIPOS>ATOM
      1 C         141.1107  138.9846  161.9345 C.ar    1  UNL1        0.0541
      2 C         142.1790  137.9980  161.5664 C.ar    1  UNL1        0.0180
      3 C         142.5397  137.7859  160.1259 C.ar    1  UNL1        0.0382
      4 C         141.8323  138.5603  159.0537 C.ar    1  UNL1        0.1385
      5 C         140.7641  139.5469  159.4218 C.ar    1  UNL1        0.0382
      6 C         140.4033  139.7591  160.8622 C.ar    1  UNL1        0.0180
      7 O         138.4152  139.2238  168.2533 O.2     1  UNL1       -0.2699
      8 C         139.6676  139.8332  167.6962 C.2     1  UNL1        0.2494
      9 N         140.0284  139.6210  166.2558 N.am    1  UNL1       -0.2660
     10 C         141.2807  140.2304  165.6987 C.3     1  UNL1        0.1160
     11 C         141.6415  140.0182  164.2582 C.3     1  UNL1        0.1197
     12 N         140.7499  139.1967  163.3749 N.am    1  UNL1       -0.2555
     13 C         139.4976  138.5874  163.9320 C.2     1  UNL1        0.2497
     14 O         138.6061  137.7659  163.0487 O.2     1  UNL1       -0.2727
     15 C         139.1368  138.7995  165.3724 C.3     1  UNL1        0.1799
     16 C         140.5591  140.6547  168.5796 C.ar    1  UNL1        0.0536
     17 C         141.6391  139.9904  169.3809 C.ar    1  UNL1        0.0045
     18 C         142.5306  140.8119  170.2642 C.ar    1  UNL1        0.0001
     19 C         142.3421  142.2977  170.3462 C.ar    1  UNL1        0.0000
     20 C         141.2621  142.9621  169.5449 C.ar    1  UNL1        0.0001
     21 C         140.3706  142.1405  168.6615 C.ar    1  UNL1        0.0045
     22 O         142.1931  138.3482  157.6133 O.3     1  UNL1       -0.4791
     23 C         143.3488  139.0918  157.0122 C.3     1  UNL1        0.1687
     24 C         143.9451  138.6301  155.7156 C.3     1  UNL1        0.0609
     25 C         145.1008  139.3737  155.1145 C.3     1  UNL1        0.0758
     26 N         145.6603  140.5792  155.8100 N.3     1  UNL1       -0.2737
     27 C         145.0641  141.0410  157.1067 C.3     1  UNL1        0.0758
     28 C         143.9084  140.2973  157.7078 C.3     1  UNL1        0.0609
     29 C         146.8160  141.3228  155.2090 C.3     1  UNL1        0.0575
     30 C         148.0268  142.0209  155.7536 C.3     1  UNL1        0.0160
     31 C         148.4504  142.3745  154.3589 C.3     1  UNL1        0.0028
     32 C         147.2396  141.6766  153.8141 C.3     1  UNL1        0.0160
@<TRIPOS>BOND
     1     7     8    2
     2     8    16    1
     3    16    17   ar
     4    17    18   ar
     5    18    19   ar
     6    19    20   ar
     7    20    21   ar
     8     8     9   am
     9     9    10    1
    10    10    11    1
    11    11    12    1
    12    12     1    1
    13     1     2   ar
    14     2     3   ar
    15     3     4   ar
    16     4    22    1
    17    22    23    1
    18    23    24    1
    19    24    25    1
    20    25    26    1
    21    26    29    1
    22    29    30    1
    23    30    31    1
    24    31    32    1
    25    26    27    1
    26    27    28    1
    27     4     5   ar
    28     5     6   ar
    29    12    13   am
    30    13    14    2
    31    13    15    1
    32    21    16   ar
    33    15     9    1
    34     6     1   ar
    35    28    23    1
    36    32    29    1
@<TRIPOS>MOLECULE
*****
 32 36 0 0 0
SMALL
GASTEIGER

@<TRIPOS>ATOM
      1 C         140.5725  138.4321  158.5555 C.ar    1  UNL1        0.0541
      2 C         142.0586  138.4994  158.3636 C.ar    1  UNL1        0.0180
      3 C         142.6898  137.8565  157.1642 C.ar    1  UNL1        0.0382
      4 C         141.8349  137.1464  156.1569 C.ar    1  UNL1        0.1385
      5 C         140.3487  137.0791  156.3489 C.ar    1  UNL1        0.0382
      6 C         139.7175  137.7219  157.5481 C.ar    1  UNL1        0.0180
      7 O         136.9534  142.0135  163.1734 O.2     1  UNL1       -0.2699
      8 C         138.0477  141.0035  163.3527 C.2     1  UNL1        0.2494
      9 N         138.6789  140.3606  162.1534 N.am    1  UNL1       -0.2660
     10 C         139.7733  139.3505  162.3328 C.3     1  UNL1        0.1160
     11 C         140.4045  138.7077  161.1334 C.3     1  UNL1        0.1197
     12 N         139.9413  139.0749  159.7548 N.am    1  UNL1       -0.2555
     13 C         138.8470  140.0850  159.5755 C.2     1  UNL1        0.2497
     14 O         138.3838  140.4523  158.1969 O.2     1  UNL1       -0.2727
     15 C         138.2158  140.7279  160.7748 C.3     1  UNL1        0.1799
     16 C         138.5109  140.6362  164.7314 C.ar    1  UNL1        0.0536
     17 C         137.9722  139.4068  165.4009 C.ar    1  UNL1        0.0045
     18 C         138.4353  139.0397  166.7796 C.ar    1  UNL1        0.0001
     19 C         139.4372  139.9019  167.4886 C.ar    1  UNL1        0.0000
     20 C         139.9759  141.1313  166.8191 C.ar    1  UNL1        0.0001
     21 C         139.5128  141.4985  165.4405 C.ar    1  UNL1        0.0045
     22 O         142.4661  136.5035  154.9576 O.3     1  UNL1       -0.4791
     23 C         142.8875  135.0650  155.0124 C.3     1  UNL1        0.1687
     24 C         143.7628  134.5820  156.1306 C.3     1  UNL1        0.0609
     25 C         144.1842  133.1434  156.1854 C.3     1  UNL1        0.0758
     26 N         143.7303  132.1879  155.1221 N.3     1  UNL1       -0.2737
     27 C         142.8549  132.6709  154.0038 C.3     1  UNL1        0.0758
     28 C         142.4335  134.1094  153.9489 C.3     1  UNL1        0.0609
     29 C         144.1517  130.7494  155.1769 C.3     1  UNL1        0.0575
     30 C         144.4349  129.7682  156.2755 C.3     1  UNL1        0.0160
     31 C         144.7476  128.7150  155.2544 C.3     1  UNL1        0.0028
     32 C         144.4645  129.6961  154.1556 C.3     1  UNL1        0.0160
@<TRIPOS>BOND
     1     7     8    2
     2     8    16    1
     3    16    17   ar
     4    17    18   ar
     5    18    19   ar
     6    19    20   ar
     7    20    21   ar
     8     8     9   am
     9     9    10    1
    10    10    11    1
    11    11    12    1
    12    12     1    1
    13     1     2   ar
    14     2     3   ar
    15     3     4   ar
    16     4    22    1
    17    22    23    1
    18    23    24    1
    19    24    25    1
    20    25    26    1
    21    26    29    1
    22    29    30    1
    23    30    31    1
    24    31    32    1
    25    26    27    1
    26    27    28    1
    27     4     5   ar
    28     5     6   ar
    29    12    13   am
    30    13    14    2
    31    13    15    1
    32    21    16   ar
    33    15     9    1
    34     6     1   ar
    35    28    23    1
    36    32    29    1
@<TRIPOS>MOLECULE
*****
 32 36 0 0 0
SMALL
GASTEIGER

@<TRIPOS>ATOM
      1 C         140.6745  139.8971  160.4640 C.ar    1  UNL1        0.0541
      2 C         141.8326  140.2349  159.5724 C.ar    1  UNL1        0.0180
      3 C         141.9439  139.6038  158.2162 C.ar    1  UNL1        0.0382
      4 C         140.8973  138.6350  157.7515 C.ar    1  UNL1        0.1385
      5 C         139.7392  138.2973  158.6431 C.ar    1  UNL1        0.0382
      6 C         139.6278  138.9283  159.9993 C.ar    1  UNL1        0.0180
      7 O         139.5751  143.7628  166.0405 O.2     1  UNL1       -0.2699
      8 C         140.2289  142.4213  165.8889 C.2     1  UNL1        0.2494
      9 N         140.3403  141.7903  164.5327 N.am    1  UNL1       -0.2660
     10 C         140.9941  140.4488  164.3810 C.3     1  UNL1        0.1160
     11 C         141.1055  139.8177  163.0247 C.3     1  UNL1        0.1197
     12 N         140.5631  140.5282  161.8202 N.am    1  UNL1       -0.2555
     13 C         139.9093  141.8697  161.9718 C.2     1  UNL1        0.2497
     14 O         139.3670  142.5801  160.7672 O.2     1  UNL1       -0.2727
     15 C         139.7979  142.5007  163.3280 C.3     1  UNL1        0.1799
     16 C         140.7713  141.7109  167.0935 C.ar    1  UNL1        0.0536
     17 C         139.9016  140.7554  167.8555 C.ar    1  UNL1        0.0045
     18 C         140.4440  140.0450  169.0601 C.ar    1  UNL1        0.0001
     19 C         141.8561  140.2901  169.5027 C.ar    1  UNL1        0.0000
     20 C         142.7258  141.2456  168.7408 C.ar    1  UNL1        0.0001
     21 C         142.1834  141.9560  167.5362 C.ar    1  UNL1        0.0045
     22 O         141.0087  138.0039  156.3953 O.3     1  UNL1       -0.4791
     23 C         141.6746  136.6687  156.2418 C.3     1  UNL1        0.1687
     24 C         141.1446  135.6758  155.2503 C.3     1  UNL1        0.0609
     25 C         141.8106  134.3405  155.0967 C.3     1  UNL1        0.0758
     26 N         143.0066  133.9982  155.9348 N.3     1  UNL1       -0.2737
     27 C         143.5367  134.9911  156.9264 C.3     1  UNL1        0.0758
     28 C         142.8707  136.3263  157.0799 C.3     1  UNL1        0.0609
     29 C         143.6725  132.6629  155.7812 C.3     1  UNL1        0.0575
     30 C         143.4058  131.4320  154.9666 C.3     1  UNL1        0.0160
     31 C         144.6143  130.7746  155.5641 C.3     1  UNL1        0.0028
     32 C         144.8811  132.0054  156.3789 C.3     1  UNL1        0.0160
@<TRIPOS>BOND
     1     7     8    2
     2     8    16    1
     3    16    17   ar
     4    17    18   ar
     5    18    19   ar
     6    19    20   ar
     7    20    21   ar
     8     8     9   am
     9     9    10    1
    10    10    11    1
    11    11    12    1
    12    12     1    1
    13     1     2   ar
    14     2     3   ar
    15     3     4   ar
    16     4    22    1
    17    22    23    1
    18    23    24    1
    19    24    25    1
    20    25    26    1
    21    26    29    1
    22    29    30    1
    23    30    31    1
    24    31    32    1
    25    26    27    1
    26    27    28    1
    27     4     5   ar
    28     5     6   ar
    29    12    13   am
    30    13    14    2
    31    13    15    1
    32    21    16   ar
    33    15     9    1
    34     6     1   ar
    35    28    23    1
    36    32    29    1
@<TRIPOS>MOLECULE
*****
 32 36 0 0 0
SMALL
GASTEIGER

@<TRIPOS>ATOM
      1 C         141.6839  139.7716  159.4420 C.ar    1  UNL1        0.0541
      2 C         142.9173  139.6338  158.5995 C.ar    1  UNL1        0.0180
      3 C         142.9288  138.6871  157.4359 C.ar    1  UNL1        0.0382
      4 C         141.7071  137.8783  157.1149 C.ar    1  UNL1        0.1385
      5 C         140.4737  138.0162  157.9574 C.ar    1  UNL1        0.0382
      6 C         140.4621  138.9628  159.1209 C.ar    1  UNL1        0.0180
      7 O         141.5535  145.0368  163.8590 O.2     1  UNL1       -0.2699
      8 C         141.6376  143.5580  164.0961 C.2     1  UNL1        0.2494
      9 N         141.6492  142.6114  162.9326 N.am    1  UNL1       -0.2660
     10 C         141.7333  141.1326  163.1696 C.3     1  UNL1        0.1160
     11 C         141.7449  140.1860  162.0060 C.3     1  UNL1        0.1197
     12 N         141.6724  140.7182  160.6055 N.am    1  UNL1       -0.2555
     13 C         141.5883  142.1970  160.3685 C.2     1  UNL1        0.2497
     14 O         141.5158  142.7291  158.9679 O.2     1  UNL1       -0.2727
     15 C         141.5767  143.1436  161.5320 C.3     1  UNL1        0.1799
     16 C         141.7101  143.0258  165.4967 C.ar    1  UNL1        0.0536
     17 C         143.0383  142.6700  166.0959 C.ar    1  UNL1        0.0045
     18 C         143.1108  142.1378  167.4965 C.ar    1  UNL1        0.0001
     19 C         141.8550  141.9616  168.2977 C.ar    1  UNL1        0.0000
     20 C         140.5268  142.3175  167.6985 C.ar    1  UNL1        0.0001
     21 C         140.4544  142.8496  166.2980 C.ar    1  UNL1        0.0045
     22 O         141.7186  136.9317  155.9514 O.3     1  UNL1       -0.4791
     23 C         142.0534  135.4852  156.1647 C.3     1  UNL1        0.1687
     24 C         141.3904  134.4308  155.3289 C.3     1  UNL1        0.0609
     25 C         141.7252  132.9843  155.5422 C.3     1  UNL1        0.0758
     26 N         142.7230  132.5922  156.5913 N.3     1  UNL1       -0.2737
     27 C         143.3861  133.6466  157.4271 C.3     1  UNL1        0.0758
     28 C         143.0513  135.0931  157.2139 C.3     1  UNL1        0.0609
     29 C         143.0578  131.1457  156.8046 C.3     1  UNL1        0.0575
     30 C         142.5477  129.8466  156.2548 C.3     1  UNL1        0.0160
     31 C         143.5313  129.1000  157.1062 C.3     1  UNL1        0.0028
     32 C         144.0415  130.3990  157.6560 C.3     1  UNL1        0.0160
@<TRIPOS>BOND
     1     7     8    2
     2     8    16    1
     3    16    17   ar
     4    17    18   ar
     5    18    19   ar
     6    19    20   ar
     7    20    21   ar
     8     8     9   am
     9     9    10    1
    10    10    11    1
    11    11    12    1
    12    12     1    1
    13     1     2   ar
    14     2     3   ar
    15     3     4   ar
    16     4    22    1
    17    22    23    1
    18    23    24    1
    19    24    25    1
    20    25    26    1
    21    26    29    1
    22    29    30    1
    23    30    31    1
    24    31    32    1
    25    26    27    1
    26    27    28    1
    27     4     5   ar
    28     5     6   ar
    29    12    13   am
    30    13    14    2
    31    13    15    1
    32    21    16   ar
    33    15     9    1
    34     6     1   ar
    35    28    23    1
    36    32    29    1
@<TRIPOS>MOLECULE
*****
 32 36 0 0 0
SMALL
GASTEIGER

@<TRIPOS>ATOM
      1 C         142.1941  140.8061  161.6597 C.ar    1  UNL1        0.0541
      2 C         141.2630  140.0201  160.7851 C.ar    1  UNL1        0.0180
      3 C         141.2327  140.2702  159.3063 C.ar    1  UNL1        0.0382
      4 C         142.1335  141.3063  158.7023 C.ar    1  UNL1        0.1385
      5 C         143.0646  142.0924  159.5770 C.ar    1  UNL1        0.0382
      6 C         143.0950  141.8423  161.0557 C.ar    1  UNL1        0.0180
      7 O         143.1873  138.7210  168.1339 O.2     1  UNL1       -0.2699
      8 C         142.3154  139.8058  167.5745 C.2     1  UNL1        0.2494
      9 N         142.2851  140.0559  166.0958 N.am    1  UNL1       -0.2660
     10 C         141.4132  141.1407  165.5363 C.3     1  UNL1        0.1160
     11 C         141.3829  141.3908  164.0576 C.3     1  UNL1        0.1197
     12 N         142.2244  140.5560  163.1384 N.am    1  UNL1       -0.2555
     13 C         143.0964  139.4713  163.6979 C.2     1  UNL1        0.2497
     14 O         143.9379  138.6365  162.7787 O.2     1  UNL1       -0.2727
     15 C         143.1267  139.2212  165.1765 C.3     1  UNL1        0.1799
     16 C         141.4738  140.6405  168.4938 C.ar    1  UNL1        0.0536
     17 C         141.9547  141.9927  168.9301 C.ar    1  UNL1        0.0045
     18 C         141.1132  142.8273  169.8493 C.ar    1  UNL1        0.0001
     19 C         139.7906  142.3098  170.3322 C.ar    1  UNL1        0.0000
     20 C         139.3097  140.9577  169.8959 C.ar    1  UNL1        0.0001
     21 C         140.1513  140.1231  168.9766 C.ar    1  UNL1        0.0045
     22 O         142.1031  141.5564  157.2237 O.3     1  UNL1       -0.4791
     23 C         141.6175  142.8737  156.6956 C.3     1  UNL1        0.1687
     24 C         140.1456  143.1449  156.5952 C.3     1  UNL1        0.0609
     25 C         139.6600  144.4622  156.0671 C.3     1  UNL1        0.0758
     26 N         140.6461  145.5083  155.6395 N.3     1  UNL1       -0.2737
     27 C         142.1181  145.2372  155.7398 C.3     1  UNL1        0.0758
     28 C         142.6037  143.9199  156.2679 C.3     1  UNL1        0.0609
     29 C         140.1605  146.8256  155.1114 C.3     1  UNL1        0.0575
     30 C         139.1504  147.8404  155.5587 C.3     1  UNL1        0.0160
     31 C         139.4736  148.6885  154.3646 C.3     1  UNL1        0.0028
     32 C         140.4837  147.6739  153.9172 C.3     1  UNL1        0.0160
@<TRIPOS>BOND
     1     7     8    2
     2     8    16    1
     3    16    17   ar
     4    17    18   ar
     5    18    19   ar
     6    19    20   ar
     7    20    21   ar
     8     8     9   am
     9     9    10    1
    10    10    11    1
    11    11    12    1
    12    12     1    1
    13     1     2   ar
    14     2     3   ar
    15     3     4   ar
    16     4    22    1
    17    22    23    1
    18    23    24    1
    19    24    25    1
    20    25    26    1
    21    26    29    1
    22    29    30    1
    23    30    31    1
    24    31    32    1
    25    26    27    1
    26    27    28    1
    27     4     5   ar
    28     5     6   ar
    29    12    13   am
    30    13    14    2
    31    13    15    1
    32    21    16   ar
    33    15     9    1
    34     6     1   ar
    35    28    23    1
    36    32    29    1
@<TRIPOS>MOLECULE
*****
 32 36 0 0 0
SMALL
GASTEIGER

@<TRIPOS>ATOM
      1 C         138.9043  141.3114  160.3642 C.ar    1  UNL1        0.0541
      2 C         139.9436  140.2445  160.5423 C.ar    1  UNL1        0.0180
      3 C         140.1062  139.5705  161.8725 C.ar    1  UNL1        0.0382
      4 C         139.2295  139.9632  163.0245 C.ar    1  UNL1        0.1385
      5 C         138.1902  141.0301  162.8464 C.ar    1  UNL1        0.0382
      6 C         138.0276  141.7041  161.5163 C.ar    1  UNL1        0.0180
      7 O         137.3482  143.4123  154.0070 O.2     1  UNL1       -0.2699
      8 C         138.2539  144.0077  155.0439 C.2     1  UNL1        0.2494
      9 N         138.4165  143.3337  156.3740 N.am    1  UNL1       -0.2660
     10 C         139.3223  143.9291  157.4108 C.3     1  UNL1        0.1160
     11 C         139.4849  143.2550  158.7409 C.3     1  UNL1        0.1197
     12 N         138.7417  141.9855  159.0342 N.am    1  UNL1       -0.2555
     13 C         137.8359  141.3900  157.9973 C.2     1  UNL1        0.2497
     14 O         137.0928  140.1205  158.2905 O.2     1  UNL1       -0.2727
     15 C         137.6733  142.0641  156.6672 C.3     1  UNL1        0.1799
     16 C         138.9971  145.2773  154.7506 C.ar    1  UNL1        0.0536
     17 C         138.4443  146.5934  155.2112 C.ar    1  UNL1        0.0045
     18 C         139.1875  147.8629  154.9179 C.ar    1  UNL1        0.0001
     19 C         140.4835  147.8163  154.1640 C.ar    1  UNL1        0.0000
     20 C         141.0362  146.5001  153.7034 C.ar    1  UNL1        0.0001
     21 C         140.2930  145.2307  153.9967 C.ar    1  UNL1        0.0045
     22 O         139.3921  139.2892  164.3545 O.3     1  UNL1       -0.4791
     23 C         140.0520  140.0165  165.4883 C.3     1  UNL1        0.1687
     24 C         141.2962  140.8175  165.2425 C.3     1  UNL1        0.0609
     25 C         141.9561  141.5449  166.3762 C.3     1  UNL1        0.0758
     26 N         141.3720  141.4712  167.7558 N.3     1  UNL1       -0.2737
     27 C         140.1278  140.6702  168.0017 C.3     1  UNL1        0.0758
     28 C         139.4678  139.9428  166.8679 C.3     1  UNL1        0.0609
     29 C         142.0320  142.1986  168.8896 C.3     1  UNL1        0.0575
     30 C         143.4266  142.2665  169.4375 C.3     1  UNL1        0.0160
     31 C         142.9653  143.2272  170.4929 C.3     1  UNL1        0.0028
     32 C         141.5706  143.1593  169.9451 C.3     1  UNL1        0.0160
@<TRIPOS>BOND
     1     7     8    2
     2     8    16    1
     3    16    17   ar
     4    17    18   ar
     5    18    19   ar
     6    19    20   ar
     7    20    21   ar
     8     8     9   am
     9     9    10    1
    10    10    11    1
    11    11    12    1
    12    12     1    1
    13     1     2   ar
    14     2     3   ar
    15     3     4   ar
    16     4    22    1
    17    22    23    1
    18    23    24    1
    19    24    25    1
    20    25    26    1
    21    26    29    1
    22    29    30    1
    23    30    31    1
    24    31    32    1
    25    26    27    1
    26    27    28    1
    27     4     5   ar
    28     5     6   ar
    29    12    13   am
    30    13    14    2
    31    13    15    1
    32    21    16   ar
    33    15     9    1
    34     6     1   ar
    35    28    23    1
    36    32    29    1
@<TRIPOS>MOLECULE
*****
 32 36 0 0 0
SMALL
GASTEIGER

@<TRIPOS>ATOM
      1 C         141.2734  139.9898  161.6372 C.ar    1  UNL1        0.0541
      2 C         140.5139  138.8810  160.9711 C.ar    1  UNL1        0.0180
      3 C         140.2789  138.9170  159.4900 C.ar    1  UNL1        0.0382
      4 C         140.8034  140.0619  158.6751 C.ar    1  UNL1        0.1385
      5 C         141.5629  141.1707  159.3412 C.ar    1  UNL1        0.0382
      6 C         141.7979  141.1347  160.8222 C.ar    1  UNL1        0.0180
      7 O         143.2597  138.9356  168.1328 O.2     1  UNL1       -0.2699
      8 C         142.2132  139.8457  167.5613 C.2     1  UNL1        0.2494
      9 N         141.9782  139.8817  166.0803 N.am    1  UNL1       -0.2660
     10 C         140.9317  140.7918  165.5089 C.3     1  UNL1        0.1160
     11 C         140.6967  140.8278  164.0278 C.3     1  UNL1        0.1197
     12 N         141.5083  139.9537  163.1182 N.am    1  UNL1       -0.2555
     13 C         142.5549  139.0437  163.6897 C.2     1  UNL1        0.2497
     14 O         143.3664  138.1696  162.7801 O.2     1  UNL1       -0.2727
     15 C         142.7898  139.0077  165.1707 C.3     1  UNL1        0.1799
     16 C         141.4016  140.7197  168.4710 C.ar    1  UNL1        0.0536
     17 C         140.1399  140.1932  169.0881 C.ar    1  UNL1        0.0045
     18 C         139.3284  141.0672  169.9977 C.ar    1  UNL1        0.0001
     19 C         139.7786  142.4679  170.2902 C.ar    1  UNL1        0.0000
     20 C         141.0402  142.9944  169.6731 C.ar    1  UNL1        0.0001
     21 C         141.8517  142.1204  168.7635 C.ar    1  UNL1        0.0045
     22 O         140.5685  140.0979  157.1941 O.3     1  UNL1       -0.4791
     23 C         139.1864  140.3300  156.6594 C.3     1  UNL1        0.1687
     24 C         138.3061  141.3721  157.2831 C.3     1  UNL1        0.0609
     25 C         136.9240  141.6043  156.7484 C.3     1  UNL1        0.0758
     26 N         136.4222  140.7942  155.5900 N.3     1  UNL1       -0.2737
     27 C         137.3024  139.7521  154.9662 C.3     1  UNL1        0.0758
     28 C         138.6845  139.5200  155.5009 C.3     1  UNL1        0.0609
     29 C         135.0401  141.0264  155.0553 C.3     1  UNL1        0.0575
     30 C         134.4680  141.3956  153.7188 C.3     1  UNL1        0.0160
     31 C         133.0855  141.3546  154.2991 C.3     1  UNL1        0.0028
     32 C         133.6574  140.9853  155.6357 C.3     1  UNL1        0.0160
@<TRIPOS>BOND
     1     7     8    2
     2     8    16    1
     3    16    17   ar
     4    17    18   ar
     5    18    19   ar
     6    19    20   ar
     7    20    21   ar
     8     8     9   am
     9     9    10    1
    10    10    11    1
    11    11    12    1
    12    12     1    1
    13     1     2   ar
    14     2     3   ar
    15     3     4   ar
    16     4    22    1
    17    22    23    1
    18    23    24    1
    19    24    25    1
    20    25    26    1
    21    26    29    1
    22    29    30    1
    23    30    31    1
    24    31    32    1
    25    26    27    1
    26    27    28    1
    27     4     5   ar
    28     5     6   ar
    29    12    13   am
    30    13    14    2
    31    13    15    1
    32    21    16   ar
    33    15     9    1
    34     6     1   ar
    35    28    23    1
    36    32    29    1
