@<TRIPOS>MOLECULE
*****
 33 36 0 0 0
SMALL
GASTEIGER

@<TRIPOS>ATOM
      1 N         143.4263  140.2522  162.3278 N.3     1  UNL1       -0.2673
      2 C         143.9384  139.0336  163.0368 C.3     1  UNL1        0.1035
      3 C         143.7742  138.9057  164.5223 C.3     1  UNL1        0.1470
      4 C         143.6099  138.7778  166.0078 C.3     1  UNL1        0.1037
      5 N         142.9336  139.8685  166.7843 N.3     1  UNL1       -0.2647
      6 C         142.4215  141.0872  166.0752 C.3     1  UNL1        0.1037
      7 C         142.5858  141.2151  164.5898 C.3     1  UNL1        0.1470
      8 C         142.7500  141.3430  163.1043 C.3     1  UNL1        0.1035
      9 O         143.0978  139.9964  165.2988 O.3     1  UNL1       -0.3530
     10 C         143.5906  140.3802  160.8423 C.3     1  UNL1        0.0913
     11 C         143.0038  139.3435  159.9308 C.3     1  UNL1        0.1087
     12 N         141.5258  139.0875  159.9391 N.3     1  UNL1       -0.1780
     13 H         141.0898  139.8635  159.4410 H       1  UNL1        0.1488
     14 S         140.7966  138.9450  161.2421 S.O2    1  UNL1        0.0603
     15 O         140.2183  140.3181  161.0687 O.2     1  UNL1       -0.1530
     16 O         141.3749  137.5719  161.4155 O.2     1  UNL1       -0.1530
     17 C         138.6090  138.5174  165.1513 C.ar    1  UNL1        0.0685
     18 C         139.6697  137.5265  164.7732 C.ar    1  UNL1        0.0116
     19 C         140.3989  137.6690  163.4701 C.ar    1  UNL1        0.0206
     20 C         140.0674  138.8024  162.5452 C.ar    1  UNL1        0.1220
     21 C         139.0066  139.7934  162.9233 C.ar    1  UNL1        0.0206
     22 C         138.2775  139.6508  164.2264 C.ar    1  UNL1        0.0116
     23 N         137.1505  138.2324  167.7574 N.1     1  UNL1       -0.1908
     24 C         137.8798  138.3749  166.4543 C.1     1  UNL1        0.1004
     25 C         142.7694  139.7406  168.2697 C.3     1  UNL1        0.0999
     26 C         141.6535  140.4619  168.9658 C.ar    1  UNL1        0.0035
     27 C         140.2571  139.9170  168.9082 C.ar    1  UNL1       -0.0023
     28 C         139.1413  140.6383  169.6043 C.ar    1  UNL1       -0.0002
     29 C         139.4217  141.9045  170.3579 C.ar    1  UNL1        0.0007
     30 C         140.8181  142.4494  170.4155 C.ar    1  UNL1        0.0100
     31 C         141.9339  141.7281  169.7195 C.ar    1  UNL1        0.0658
     32 C         143.3303  142.2730  169.7771 C.1     1  UNL1        0.1001
     33 N         144.7266  142.8180  169.8347 N.1     1  UNL1       -0.1908
@<TRIPOS>BOND
     1    23    24    3
     2    24    17    1
     3    17    18   ar
     4    18    19   ar
     5    19    20   ar
     6    20    14    1
     7    14    15    2
     8    14    16    2
     9    14    12    1
    10    12    11    1
    11    11    10    1
    12    10     1    1
    13     1     2    1
    14     2     3    1
    15     3     4    1
    16     4     5    1
    17     5    25    1
    18    25    26    1
    19    26    27   ar
    20    27    28   ar
    21    28    29   ar
    22    29    30   ar
    23    30    31   ar
    24    31    32    1
    25    32    33    3
    26     5     6    1
    27     6     7    1
    28     7     8    1
    29     7     9    1
    30    20    21   ar
    31    21    22   ar
    32    22    17   ar
    33     8     1    1
    34     9     3    1
    35    31    26   ar
    36    12    13    1
@<TRIPOS>MOLECULE
*****
 33 36 0 0 0
SMALL
GASTEIGER

@<TRIPOS>ATOM
      1 N         143.3570  141.0899  161.9568 N.3     1  UNL1       -0.2673
      2 C         142.0439  141.7911  162.1411 C.3     1  UNL1        0.1035
      3 C         141.6150  142.2326  163.5089 C.3     1  UNL1        0.1470
      4 C         141.1859  142.6741  164.8768 C.3     1  UNL1        0.1037
      5 N         142.0701  142.4144  166.0604 N.3     1  UNL1       -0.2647
      6 C         143.3833  141.7132  165.8761 C.3     1  UNL1        0.1037
      7 C         143.8122  141.2717  164.5082 C.3     1  UNL1        0.1470
      8 C         144.2412  140.8302  163.1404 C.3     1  UNL1        0.1035
      9 O         142.4991  141.9729  164.6925 O.3     1  UNL1       -0.3530
     10 C         143.7861  140.6483  160.5890 C.3     1  UNL1        0.0913
     11 C         144.0257  139.1939  160.3111 C.3     1  UNL1        0.1087
     12 N         142.8780  138.2282  160.3271 N.3     1  UNL1       -0.1780
     13 H         142.3153  138.4259  159.4997 H       1  UNL1        0.1488
     14 S         141.9366  138.2014  161.4946 S.O2    1  UNL1        0.0603
     15 O         143.0458  137.7119  162.3778 O.2     1  UNL1       -0.1530
     16 O         140.8274  138.6908  160.6115 O.2     1  UNL1       -0.1530
     17 C         139.1125  138.1209  164.9972 C.ar    1  UNL1        0.0685
     18 C         138.6198  137.7568  163.6280 C.ar    1  UNL1        0.0116
     19 C         139.5612  137.7836  162.4604 C.ar    1  UNL1        0.0206
     20 C         140.9952  138.1746  162.6621 C.ar    1  UNL1        0.1220
     21 C         141.4879  138.5387  164.0314 C.ar    1  UNL1        0.0206
     22 C         140.5466  138.5118  165.1989 C.ar    1  UNL1        0.0116
     23 N         137.2297  138.0672  167.3322 N.1     1  UNL1       -0.1908
     24 C         138.1712  138.0941  166.1647 C.1     1  UNL1        0.1004
     25 C         141.6411  142.8560  167.4282 C.3     1  UNL1        0.0999
     26 C         141.2365  141.8375  168.4526 C.ar    1  UNL1        0.0035
     27 C         139.9302  141.1133  168.3148 C.ar    1  UNL1       -0.0023
     28 C         139.5256  140.0949  169.3391 C.ar    1  UNL1       -0.0002
     29 C         140.4273  139.8008  170.5011 C.ar    1  UNL1        0.0007
     30 C         141.7337  140.5250  170.6388 C.ar    1  UNL1        0.0100
     31 C         142.1383  141.5434  169.6146 C.ar    1  UNL1        0.0658
     32 C         143.4446  142.2676  169.7523 C.1     1  UNL1        0.1001
     33 N         144.7510  142.9918  169.8901 N.1     1  UNL1       -0.1908
@<TRIPOS>BOND
     1    23    24    3
     2    24    17    1
     3    17    18   ar
     4    18    19   ar
     5    19    20   ar
     6    20    14    1
     7    14    15    2
     8    14    16    2
     9    14    12    1
    10    12    11    1
    11    11    10    1
    12    10     1    1
    13     1     2    1
    14     2     3    1
    15     3     4    1
    16     4     5    1
    17     5    25    1
    18    25    26    1
    19    26    27   ar
    20    27    28   ar
    21    28    29   ar
    22    29    30   ar
    23    30    31   ar
    24    31    32    1
    25    32    33    3
    26     5     6    1
    27     6     7    1
    28     7     8    1
    29     7     9    1
    30    20    21   ar
    31    21    22   ar
    32    22    17   ar
    33     8     1    1
    34     9     3    1
    35    31    26   ar
    36    12    13    1
@<TRIPOS>MOLECULE
*****
 33 36 0 0 0
SMALL
GASTEIGER

@<TRIPOS>ATOM
      1 N         138.5094  140.6330  161.2789 N.3     1  UNL1       -0.2673
      2 C         137.5837  141.0478  162.3838 C.3     1  UNL1        0.1035
      3 C         137.9584  140.7889  163.8130 C.3     1  UNL1        0.1470
      4 C         138.3330  140.5300  165.2422 C.3     1  UNL1        0.1037
      5 N         139.6334  139.8563  165.5664 N.3     1  UNL1       -0.2647
      6 C         140.5591  139.4415  164.4614 C.3     1  UNL1        0.1037
      7 C         140.1845  139.7004  163.0322 C.3     1  UNL1        0.1470
      8 C         139.8098  139.9593  161.6031 C.3     1  UNL1        0.1035
      9 O         139.2588  140.1152  164.1372 O.3     1  UNL1       -0.3530
     10 C         138.1348  140.8919  159.8496 C.3     1  UNL1        0.0913
     11 C         138.7565  142.0373  159.1070 C.3     1  UNL1        0.1087
     12 N         138.9472  143.3590  159.7903 N.3     1  UNL1       -0.1780
     13 H         139.1568  144.0402  159.0606 H       1  UNL1        0.1488
     14 S         140.0044  143.5133  160.8432 S.O2    1  UNL1        0.0603
     15 O         141.0007  142.8485  159.9402 O.2     1  UNL1       -0.1530
     16 O         139.0081  144.1781  161.7461 O.2     1  UNL1       -0.1530
     17 C         143.1759  143.9762  164.0019 C.ar    1  UNL1        0.0685
     18 C         143.5016  144.2581  162.5651 C.ar    1  UNL1        0.0116
     19 C         142.4444  144.1038  161.5121 C.ar    1  UNL1        0.0206
     20 C         141.0615  143.6676  161.8960 C.ar    1  UNL1        0.1220
     21 C         140.7359  143.3857  163.3329 C.ar    1  UNL1        0.0206
     22 C         141.7930  143.5399  164.3858 C.ar    1  UNL1        0.0116
     23 N         145.2902  144.2847  166.1077 N.1     1  UNL1       -0.1908
     24 C         144.2330  144.1305  165.0547 C.1     1  UNL1        0.1004
     25 C         140.0080  139.5974  166.9956 C.3     1  UNL1        0.0999
     26 C         140.8374  140.5967  167.7464 C.ar    1  UNL1        0.0035
     27 C         142.0662  141.1787  167.1128 C.ar    1  UNL1       -0.0023
     28 C         142.8955  142.1779  167.8635 C.ar    1  UNL1       -0.0002
     29 C         142.4962  142.5952  169.2479 C.ar    1  UNL1        0.0007
     30 C         141.2674  142.0131  169.8814 C.ar    1  UNL1        0.0100
     31 C         140.4380  141.0139  169.1307 C.ar    1  UNL1        0.0658
     32 C         139.2093  140.4319  169.7643 C.1     1  UNL1        0.1001
     33 N         137.9805  139.8499  170.3979 N.1     1  UNL1       -0.1908
@<TRIPOS>BOND
     1    23    24    3
     2    24    17    1
     3    17    18   ar
     4    18    19   ar
     5    19    20   ar
     6    20    14    1
     7    14    15    2
     8    14    16    2
     9    14    12    1
    10    12    11    1
    11    11    10    1
    12    10     1    1
    13     1     2    1
    14     2     3    1
    15     3     4    1
    16     4     5    1
    17     5    25    1
    18    25    26    1
    19    26    27   ar
    20    27    28   ar
    21    28    29   ar
    22    29    30   ar
    23    30    31   ar
    24    31    32    1
    25    32    33    3
    26     5     6    1
    27     6     7    1
    28     7     8    1
    29     7     9    1
    30    20    21   ar
    31    21    22   ar
    32    22    17   ar
    33     8     1    1
    34     9     3    1
    35    31    26   ar
    36    12    13    1
@<TRIPOS>MOLECULE
*****
 33 36 0 0 0
SMALL
GASTEIGER

@<TRIPOS>ATOM
      1 N         140.9167  138.6453  161.0588 N.3     1  UNL1       -0.2673
      2 C         141.3025  137.6721  162.1331 C.3     1  UNL1        0.1035
      3 C         141.0147  137.9890  163.5707 C.3     1  UNL1        0.1470
      4 C         140.7268  138.3059  165.0084 C.3     1  UNL1        0.1037
      5 N         140.0531  139.5959  165.3717 N.3     1  UNL1       -0.2647
      6 C         139.6673  140.5691  164.2973 C.3     1  UNL1        0.1037
      7 C         139.9551  140.2522  162.8597 C.3     1  UNL1        0.1470
      8 C         140.2430  139.9353  161.4222 C.3     1  UNL1        0.1035
      9 O         140.3410  139.2790  163.9340 O.3     1  UNL1       -0.3530
     10 C         141.2045  138.3284  159.6212 C.3     1  UNL1        0.0913
     11 C         142.6029  137.9967  159.1917 C.3     1  UNL1        0.1087
     12 N         143.6377  139.0792  159.1055 N.3     1  UNL1       -0.1780
     13 H         144.5186  138.6258  158.8628 H       1  UNL1        0.1488
     14 S         143.9125  139.9505  160.2951 S.O2    1  UNL1        0.0603
     15 O         143.4146  141.1443  159.5357 O.2     1  UNL1       -0.1530
     16 O         144.4105  138.7566  161.0545 O.2     1  UNL1       -0.1530
     17 C         144.7371  142.5644  163.8640 C.ar    1  UNL1        0.0685
     18 C         144.4862  143.1851  162.5218 C.ar    1  UNL1        0.0116
     19 C         144.2113  142.3138  161.3321 C.ar    1  UNL1        0.0206
     20 C         144.1874  140.8218  161.4847 C.ar    1  UNL1        0.1220
     21 C         144.4383  140.2011  162.8271 C.ar    1  UNL1        0.0206
     22 C         144.7131  141.0724  164.0167 C.ar    1  UNL1        0.0116
     23 N         145.2867  144.3071  166.2433 N.1     1  UNL1       -0.1908
     24 C         145.0119  143.4358  165.0536 C.1     1  UNL1        0.1004
     25 C         139.7653  139.9128  166.8092 C.3     1  UNL1        0.0999
     26 C         140.7405  140.7260  167.6078 C.ar    1  UNL1        0.0035
     27 C         141.9698  141.2803  166.9509 C.ar    1  UNL1       -0.0023
     28 C         142.9450  142.0934  167.7494 C.ar    1  UNL1       -0.0002
     29 C         142.6909  142.3524  169.2049 C.ar    1  UNL1        0.0007
     30 C         141.4615  141.7982  169.8618 C.ar    1  UNL1        0.0100
     31 C         140.4863  140.9850  169.0633 C.ar    1  UNL1        0.0658
     32 C         139.2570  140.4308  169.7202 C.1     1  UNL1        0.1001
     33 N         138.0276  139.8766  170.3771 N.1     1  UNL1       -0.1908
@<TRIPOS>BOND
     1    23    24    3
     2    24    17    1
     3    17    18   ar
     4    18    19   ar
     5    19    20   ar
     6    20    14    1
     7    14    15    2
     8    14    16    2
     9    14    12    1
    10    12    11    1
    11    11    10    1
    12    10     1    1
    13     1     2    1
    14     2     3    1
    15     3     4    1
    16     4     5    1
    17     5    25    1
    18    25    26    1
    19    26    27   ar
    20    27    28   ar
    21    28    29   ar
    22    29    30   ar
    23    30    31   ar
    24    31    32    1
    25    32    33    3
    26     5     6    1
    27     6     7    1
    28     7     8    1
    29     7     9    1
    30    20    21   ar
    31    21    22   ar
    32    22    17   ar
    33     8     1    1
    34     9     3    1
    35    31    26   ar
    36    12    13    1
@<TRIPOS>MOLECULE
*****
 33 36 0 0 0
SMALL
GASTEIGER

@<TRIPOS>ATOM
      1 N         139.9823  138.4537  162.1218 N.3     1  UNL1       -0.2673
      2 C         141.3352  139.0992  162.0689 C.3     1  UNL1        0.1035
      3 C         142.0030  139.5460  163.3355 C.3     1  UNL1        0.1470
      4 C         142.6709  139.9929  164.6022 C.3     1  UNL1        0.1037
      5 N         141.9857  139.7942  165.9217 N.3     1  UNL1       -0.2647
      6 C         140.6327  139.1486  165.9745 C.3     1  UNL1        0.1037
      7 C         139.9649  138.7018  164.7079 C.3     1  UNL1        0.1470
      8 C         139.2972  138.2550  163.4413 C.3     1  UNL1        0.1035
      9 O         141.3179  139.3473  164.6550 O.3     1  UNL1       -0.3530
     10 C         139.3144  138.0068  160.8551 C.3     1  UNL1        0.0913
     11 C         139.2668  138.9234  159.6687 C.3     1  UNL1        0.1087
     12 N         138.3129  140.0810  159.6530 N.3     1  UNL1       -0.1780
     13 H         138.5382  140.6370  158.8281 H       1  UNL1        0.1488
     14 S         138.2650  141.0291  160.8144 S.O2    1  UNL1        0.0603
     15 O         139.5457  141.6589  160.3531 O.2     1  UNL1       -0.1530
     16 O         136.9842  140.3992  161.2757 O.2     1  UNL1       -0.1530
     17 C         138.1211  143.8733  164.2985 C.ar    1  UNL1        0.0685
     18 C         138.5913  144.3533  162.9575 C.ar    1  UNL1        0.0116
     19 C         138.6393  143.4052  161.7960 C.ar    1  UNL1        0.0206
     20 C         138.2170  141.9771  161.9757 C.ar    1  UNL1        0.1220
     21 C         137.7468  141.4972  163.3169 C.ar    1  UNL1        0.0206
     22 C         137.6988  142.4452  164.4782 C.ar    1  UNL1        0.0116
     23 N         138.0252  145.7695  166.6214 N.1     1  UNL1       -0.1908
     24 C         138.0731  144.8214  165.4599 C.1     1  UNL1        0.1004
     25 C         142.6535  140.2410  167.1883 C.3     1  UNL1        0.0999
     26 C         141.8704  140.9908  168.2249 C.ar    1  UNL1        0.0035
     27 C         141.2022  142.2857  167.8687 C.ar    1  UNL1       -0.0023
     28 C         140.4191  143.0356  168.9052 C.ar    1  UNL1       -0.0002
     29 C         140.3041  142.4906  170.2979 C.ar    1  UNL1        0.0007
     30 C         140.9723  141.1957  170.6541 C.ar    1  UNL1        0.0100
     31 C         141.7554  140.4458  169.6176 C.ar    1  UNL1        0.0658
     32 C         142.4236  139.1510  169.9738 C.1     1  UNL1        0.1001
     33 N         143.0918  137.8561  170.3300 N.1     1  UNL1       -0.1908
@<TRIPOS>BOND
     1    23    24    3
     2    24    17    1
     3    17    18   ar
     4    18    19   ar
     5    19    20   ar
     6    20    14    1
     7    14    15    2
     8    14    16    2
     9    14    12    1
    10    12    11    1
    11    11    10    1
    12    10     1    1
    13     1     2    1
    14     2     3    1
    15     3     4    1
    16     4     5    1
    17     5    25    1
    18    25    26    1
    19    26    27   ar
    20    27    28   ar
    21    28    29   ar
    22    29    30   ar
    23    30    31   ar
    24    31    32    1
    25    32    33    3
    26     5     6    1
    27     6     7    1
    28     7     8    1
    29     7     9    1
    30    20    21   ar
    31    21    22   ar
    32    22    17   ar
    33     8     1    1
    34     9     3    1
    35    31    26   ar
    36    12    13    1
@<TRIPOS>MOLECULE
*****
 33 36 0 0 0
SMALL
GASTEIGER

@<TRIPOS>ATOM
      1 N         141.8872  143.5811  161.7361 N.3     1  UNL1       -0.2673
      2 C         142.4068  142.1758  161.8078 C.3     1  UNL1        0.1035
      3 C         142.6766  141.5431  163.1407 C.3     1  UNL1        0.1470
      4 C         142.9465  140.9102  164.4737 C.3     1  UNL1        0.1037
      5 N         142.6967  141.6827  165.7350 N.3     1  UNL1       -0.2647
      6 C         142.1771  143.0881  165.6633 C.3     1  UNL1        0.1037
      7 C         141.9072  143.7208  164.3304 C.3     1  UNL1        0.1470
      8 C         141.6374  144.3536  162.9974 C.3     1  UNL1        0.1035
      9 O         142.4268  142.3156  164.4020 O.3     1  UNL1       -0.3530
     10 C         141.6173  144.2139  160.4031 C.3     1  UNL1        0.0913
     11 C         140.2231  144.6305  160.0392 C.3     1  UNL1        0.1087
     12 N         139.1243  143.6105  159.9899 N.3     1  UNL1       -0.1780
     13 H         138.2552  144.1212  159.8340 H       1  UNL1        0.1488
     14 S         138.8895  142.7038  161.1614 S.O2    1  UNL1        0.0603
     15 O         138.3723  143.8655  161.9569 O.2     1  UNL1       -0.1530
     16 O         139.4068  141.5420  160.3660 O.2     1  UNL1       -0.1530
     17 C         138.1852  139.9835  164.6763 C.ar    1  UNL1        0.0685
     18 C         138.2955  139.4103  163.2946 C.ar    1  UNL1        0.0116
     19 C         138.5302  140.3170  162.1229 C.ar    1  UNL1        0.0206
     20 C         138.6548  141.7970  162.3330 C.ar    1  UNL1        0.1220
     21 C         138.5445  142.3702  163.7148 C.ar    1  UNL1        0.0206
     22 C         138.3098  141.4635  164.8864 C.ar    1  UNL1        0.0116
     23 N         137.7156  138.1700  167.0195 N.1     1  UNL1       -0.1908
     24 C         137.9505  139.0768  165.8479 C.1     1  UNL1        0.1004
     25 C         142.9665  141.0500  167.0679 C.3     1  UNL1        0.0999
     26 C         141.9148  141.0760  168.1372 C.ar    1  UNL1        0.0035
     27 C         140.5793  140.4389  167.8913 C.ar    1  UNL1       -0.0023
     28 C         139.5276  140.4649  168.9605 C.ar    1  UNL1       -0.0002
     29 C         139.8115  141.1281  170.2756 C.ar    1  UNL1        0.0007
     30 C         141.1470  141.7652  170.5215 C.ar    1  UNL1        0.0100
     31 C         142.1986  141.7392  169.4523 C.ar    1  UNL1        0.0658
     32 C         143.5341  142.3763  169.6983 C.1     1  UNL1        0.1001
     33 N         144.8696  143.0135  169.9442 N.1     1  UNL1       -0.1908
@<TRIPOS>BOND
     1    23    24    3
     2    24    17    1
     3    17    18   ar
     4    18    19   ar
     5    19    20   ar
     6    20    14    1
     7    14    15    2
     8    14    16    2
     9    14    12    1
    10    12    11    1
    11    11    10    1
    12    10     1    1
    13     1     2    1
    14     2     3    1
    15     3     4    1
    16     4     5    1
    17     5    25    1
    18    25    26    1
    19    26    27   ar
    20    27    28   ar
    21    28    29   ar
    22    29    30   ar
    23    30    31   ar
    24    31    32    1
    25    32    33    3
    26     5     6    1
    27     6     7    1
    28     7     8    1
    29     7     9    1
    30    20    21   ar
    31    21    22   ar
    32    22    17   ar
    33     8     1    1
    34     9     3    1
    35    31    26   ar
    36    12    13    1
@<TRIPOS>MOLECULE
*****
 33 36 0 0 0
SMALL
GASTEIGER

@<TRIPOS>ATOM
      1 N         142.9156  140.9474  160.7906 N.3     1  UNL1       -0.2673
      2 C         144.1069  140.4803  161.5731 C.3     1  UNL1        0.1035
      3 C         144.1988  140.7679  163.0424 C.3     1  UNL1        0.1470
      4 C         144.2908  141.0554  164.5118 C.3     1  UNL1        0.1037
      5 N         143.1913  141.8101  165.1985 N.3     1  UNL1       -0.2647
      6 C         141.9999  142.2772  164.4159 C.3     1  UNL1        0.1037
      7 C         141.9080  141.9896  162.9467 C.3     1  UNL1        0.1470
      8 C         141.8161  141.7021  161.4774 C.3     1  UNL1        0.1035
      9 O         143.0994  141.5225  163.7292 O.3     1  UNL1       -0.3530
     10 C         142.8236  140.6599  159.3212 C.3     1  UNL1        0.0913
     11 C         141.8255  139.6621  158.8133 C.3     1  UNL1        0.1087
     12 N         141.6160  138.3706  159.5471 N.3     1  UNL1       -0.1780
     13 H         141.0663  137.7692  158.9336 H       1  UNL1        0.1488
     14 S         140.9316  138.3689  160.8818 S.O2    1  UNL1        0.0603
     15 O         142.0847  137.6126  161.4721 O.2     1  UNL1       -0.1530
     16 O         139.7786  139.1252  160.2916 O.2     1  UNL1       -0.1530
     17 C         138.8784  138.3637  164.8861 C.ar    1  UNL1        0.0685
     18 C         140.1121  137.5371  164.6748 C.ar    1  UNL1        0.0116
     19 C         140.7966  137.5388  163.3400 C.ar    1  UNL1        0.0206
     20 C         140.2472  138.3671  162.2166 C.ar    1  UNL1        0.1220
     21 C         139.0134  139.1937  162.4279 C.ar    1  UNL1        0.0206
     22 C         138.3291  139.1920  163.7627 C.ar    1  UNL1        0.0116
     23 N         137.5096  138.3603  167.5556 N.1     1  UNL1       -0.1908
     24 C         138.1940  138.3619  166.2208 C.1     1  UNL1        0.1004
     25 C         143.2832  142.0976  166.6678 C.3     1  UNL1        0.0999
     26 C         142.1611  141.7017  167.5812 C.ar    1  UNL1        0.0035
     27 C         141.2465  142.7493  168.1433 C.ar    1  UNL1       -0.0023
     28 C         140.1244  142.3534  169.0567 C.ar    1  UNL1       -0.0002
     29 C         139.9170  140.9099  169.4078 C.ar    1  UNL1        0.0007
     30 C         140.8316  139.8624  168.8457 C.ar    1  UNL1        0.0100
     31 C         141.9537  140.2582  167.9324 C.ar    1  UNL1        0.0658
     32 C         142.8683  139.2106  167.3702 C.1     1  UNL1        0.1001
     33 N         143.7829  138.1630  166.8081 N.1     1  UNL1       -0.1908
@<TRIPOS>BOND
     1    23    24    3
     2    24    17    1
     3    17    18   ar
     4    18    19   ar
     5    19    20   ar
     6    20    14    1
     7    14    15    2
     8    14    16    2
     9    14    12    1
    10    12    11    1
    11    11    10    1
    12    10     1    1
    13     1     2    1
    14     2     3    1
    15     3     4    1
    16     4     5    1
    17     5    25    1
    18    25    26    1
    19    26    27   ar
    20    27    28   ar
    21    28    29   ar
    22    29    30   ar
    23    30    31   ar
    24    31    32    1
    25    32    33    3
    26     5     6    1
    27     6     7    1
    28     7     8    1
    29     7     9    1
    30    20    21   ar
    31    21    22   ar
    32    22    17   ar
    33     8     1    1
    34     9     3    1
    35    31    26   ar
    36    12    13    1
@<TRIPOS>MOLECULE
*****
 33 36 0 0 0
SMALL
GASTEIGER

@<TRIPOS>ATOM
      1 N         143.6184  140.3645  161.1880 N.3     1  UNL1       -0.2673
      2 C         143.1041  141.7414  161.4876 C.3     1  UNL1        0.1035
      3 C         142.9875  142.2055  162.9092 C.3     1  UNL1        0.1470
      4 C         142.8709  142.6696  164.3309 C.3     1  UNL1        0.1037
      5 N         143.2685  141.7569  165.4528 N.3     1  UNL1       -0.2647
      6 C         143.7828  140.3800  165.1531 C.3     1  UNL1        0.1037
      7 C         143.8994  139.9159  163.7315 C.3     1  UNL1        0.1470
      8 C         144.0160  139.4518  162.3099 C.3     1  UNL1        0.1035
      9 O         143.3852  141.2927  164.0312 O.3     1  UNL1       -0.3530
     10 C         143.7350  139.9004  159.7663 C.3     1  UNL1        0.0913
     11 C         142.8723  138.7779  159.2707 C.3     1  UNL1        0.1087
     12 N         141.3809  138.8610  159.4086 N.3     1  UNL1       -0.1780
     13 H         141.0956  139.7472  158.9919 H       1  UNL1        0.1488
     14 S         140.7487  138.7979  160.7674 S.O2    1  UNL1        0.0603
     15 O         141.5070  137.5377  161.0617 O.2     1  UNL1       -0.1530
     16 O         139.9904  140.0582  160.4730 O.2     1  UNL1       -0.1530
     17 C         138.8520  138.6087  164.8437 C.ar    1  UNL1        0.0685
     18 C         138.5072  139.7286  163.9074 C.ar    1  UNL1        0.0116
     19 C         139.1394  139.7917  162.5485 C.ar    1  UNL1        0.0206
     20 C         140.1164  138.7349  162.1261 C.ar    1  UNL1        0.1220
     21 C         140.4613  137.6149  163.0626 C.ar    1  UNL1        0.0206
     22 C         139.8290  137.5519  164.4213 C.ar    1  UNL1        0.0116
     23 N         137.5876  138.4826  167.5613 N.1     1  UNL1       -0.1908
     24 C         138.2198  138.5457  166.2025 C.1     1  UNL1        0.1004
     25 C         143.1519  142.2210  166.8744 C.3     1  UNL1        0.0999
     26 C         142.2500  141.4956  167.8286 C.ar    1  UNL1        0.0035
     27 C         142.8294  140.5377  168.8271 C.ar    1  UNL1       -0.0023
     28 C         141.9276  139.8124  169.7813 C.ar    1  UNL1       -0.0002
     29 C         140.4465  140.0448  169.7370 C.ar    1  UNL1        0.0007
     30 C         139.8671  141.0027  168.7386 C.ar    1  UNL1        0.0100
     31 C         140.7689  141.7281  167.7844 C.ar    1  UNL1        0.0658
     32 C         140.1895  142.6859  166.7860 C.1     1  UNL1        0.1001
     33 N         139.6101  143.6438  165.7876 N.1     1  UNL1       -0.1908
@<TRIPOS>BOND
     1    23    24    3
     2    24    17    1
     3    17    18   ar
     4    18    19   ar
     5    19    20   ar
     6    20    14    1
     7    14    15    2
     8    14    16    2
     9    14    12    1
    10    12    11    1
    11    11    10    1
    12    10     1    1
    13     1     2    1
    14     2     3    1
    15     3     4    1
    16     4     5    1
    17     5    25    1
    18    25    26    1
    19    26    27   ar
    20    27    28   ar
    21    28    29   ar
    22    29    30   ar
    23    30    31   ar
    24    31    32    1
    25    32    33    3
    26     5     6    1
    27     6     7    1
    28     7     8    1
    29     7     9    1
    30    20    21   ar
    31    21    22   ar
    32    22    17   ar
    33     8     1    1
    34     9     3    1
    35    31    26   ar
    36    12    13    1
@<TRIPOS>MOLECULE
*****
 33 36 0 0 0
SMALL
GASTEIGER

@<TRIPOS>ATOM
      1 N         140.4535  137.7937  163.0925 N.3     1  UNL1       -0.2673
      2 C         139.2897  138.0437  162.1799 C.3     1  UNL1        0.1035
      3 C         139.5180  138.2450  160.7111 C.3     1  UNL1        0.1470
      4 C         139.7463  138.4463  159.2423 C.3     1  UNL1        0.1037
      5 N         141.1386  138.3977  158.6861 N.3     1  UNL1       -0.2647
      6 C         142.3025  138.1477  159.5988 C.3     1  UNL1        0.1037
      7 C         142.0741  137.9464  161.0675 C.3     1  UNL1        0.1470
      8 C         141.8458  137.7451  162.5363 C.3     1  UNL1        0.1035
      9 O         140.9102  138.1963  160.1550 O.3     1  UNL1       -0.3530
     10 C         140.2252  137.5924  164.5613 C.3     1  UNL1        0.0913
     11 C         138.8312  137.6197  165.1143 C.3     1  UNL1        0.1087
     12 N         138.2716  138.8934  165.6753 N.3     1  UNL1       -0.1780
     13 H         138.0118  139.4764  164.8797 H       1  UNL1        0.1488
     14 S         139.1096  139.7457  166.5815 S.O2    1  UNL1        0.0603
     15 O         139.6317  140.4964  165.3925 O.2     1  UNL1       -0.1530
     16 O         138.5875  138.9950  167.7704 O.2     1  UNL1       -0.1530
     17 C         141.6237  142.3028  169.3001 C.ar    1  UNL1        0.0685
     18 C         141.9882  142.1645  167.8516 C.ar    1  UNL1        0.0116
     19 C         141.1502  141.3121  166.9454 C.ar    1  UNL1        0.0206
     20 C         139.9476  140.5980  167.4876 C.ar    1  UNL1        0.1220
     21 C         139.5831  140.7364  168.9361 C.ar    1  UNL1        0.0206
     22 C         140.4211  141.5887  169.8423 C.ar    1  UNL1        0.0116
     23 N         143.2997  144.0075  171.1125 N.1     1  UNL1       -0.1908
     24 C         142.4617  143.1551  170.2062 C.1     1  UNL1        0.1004
     25 C         141.3669  138.5990  157.2174 C.3     1  UNL1        0.0999
     26 C         141.9184  137.4804  156.3838 C.ar    1  UNL1        0.0035
     27 C         143.3867  137.1752  156.4151 C.ar    1  UNL1       -0.0023
     28 C         143.9382  136.0567  155.5816 C.ar    1  UNL1       -0.0002
     29 C         143.0214  135.2434  154.7169 C.ar    1  UNL1        0.0007
     30 C         141.5531  135.5485  154.6856 C.ar    1  UNL1        0.0100
     31 C         141.0016  136.6670  155.5190 C.ar    1  UNL1        0.0658
     32 C         139.5333  136.9721  155.4878 C.1     1  UNL1        0.1001
     33 N         138.0650  137.2773  155.4565 N.1     1  UNL1       -0.1908
@<TRIPOS>BOND
     1    23    24    3
     2    24    17    1
     3    17    18   ar
     4    18    19   ar
     5    19    20   ar
     6    20    14    1
     7    14    15    2
     8    14    16    2
     9    14    12    1
    10    12    11    1
    11    11    10    1
    12    10     1    1
    13     1     2    1
    14     2     3    1
    15     3     4    1
    16     4     5    1
    17     5    25    1
    18    25    26    1
    19    26    27   ar
    20    27    28   ar
    21    28    29   ar
    22    29    30   ar
    23    30    31   ar
    24    31    32    1
    25    32    33    3
    26     5     6    1
    27     6     7    1
    28     7     8    1
    29     7     9    1
    30    20    21   ar
    31    21    22   ar
    32    22    17   ar
    33     8     1    1
    34     9     3    1
    35    31    26   ar
    36    12    13    1
