@<TRIPOS>MOLECULE
*****
 29 33 0 0 0
SMALL
GASTEIGER

@<TRIPOS>ATOM
      1 C         138.7266  140.6767  157.1569 C.ar    1  UNL1        0.0741
      2 C         139.9130  140.9053  156.2680 C.ar    1  UNL1        0.0062
      3 C         139.7153  141.1480  154.8011 C.ar    1  UNL1        0.0034
      4 C         138.3312  141.1622  154.2230 C.ar    1  UNL1        0.0392
      5 C         137.1448  140.9335  155.1119 C.ar    1  UNL1        0.1662
      6 O         135.6723  140.8907  154.8293 O.2     1  UNL1       -0.4237
      7 C         134.9599  140.6216  156.1216 C.ar    1  UNL1        0.2925
      8 N         135.9921  140.4980  157.2029 N.ar    1  UNL1       -0.1945
      9 C         137.3425  140.6908  156.5788 C.ar    1  UNL1        0.1245
     10 N         133.4758  140.4977  156.3011 N.pl3   1  UNL1       -0.2585
     11 C         132.9202  139.5452  157.3179 C.3     1  UNL1        0.1272
     12 C         131.4362  139.4214  157.4973 C.3     1  UNL1        0.1637
     13 O         130.5077  140.2501  156.6599 O.3     1  UNL1       -0.3501
     14 C         131.0633  141.2025  155.6430 C.3     1  UNL1        0.1637
     15 C         132.5474  141.3264  155.4636 C.3     1  UNL1        0.1272
     16 N         137.8134  139.8468  159.4433 N.am    1  UNL1       -0.3024
     17 C         138.9242  140.4339  158.6239 C.2     1  UNL1        0.2474
     18 O         140.2327  140.7782  159.2715 O.2     1  UNL1       -0.2701
     19 H         136.9546  139.6209  159.0182 H       1  UNL1        0.1497
     20 C         138.1656  139.3068  161.5831 C.3     1  UNL1        0.0896
     21 N         138.2086  139.3613  162.3773 N.3     1  UNL1       -0.2740
     22 C         138.7039  138.0293  162.8570 C.3     1  UNL1        0.0591
     23 C         138.9015  137.7865  164.3239 C.3     1  UNL1        0.0161
     24 C         138.6037  138.8758  165.3112 C.3     1  UNL1        0.0028
     25 C         138.1083  140.2079  164.8314 C.3     1  UNL1        0.0161
     26 C         137.9108  140.4507  163.3645 C.3     1  UNL1        0.0591
     27 C         137.7132  140.6934  161.8975 C.3     1  UNL1        0.0356
     28 C         138.0110  139.6041  160.9102 C.3     1  UNL1        0.0745
     29 C         138.5064  138.2720  161.3900 C.3     1  UNL1        0.0356
@<TRIPOS>BOND
     1    20    21    1
     2    21    22    1
     3    22    23    1
     4    23    24    1
     5    24    25    1
     6    26    25    1
     7    26    27    1
     8    27    28    1
     9    28    16    1
    10    16    17   am
    11    17    18    2
    12    17     1    1
    13     1     2   ar
    14     2     3   ar
    15     3     4   ar
    16     4     5   ar
    17     5     6   ar
    18     6     7   ar
    19     7    10    1
    20    10    11    1
    21    11    12    1
    22    12    13    1
    23    13    14    1
    24    14    15    1
    25     7     8   ar
    26     8     9   ar
    27    28    29    1
    28    26    21    1
    29     9     1   ar
    30    29    22    1
    31     9     5   ar
    32    15    10    1
    33    16    19    1
@<TRIPOS>MOLECULE
*****
 29 33 0 0 0
SMALL
GASTEIGER

@<TRIPOS>ATOM
      1 C         142.8603  138.8588  156.5702 C.ar    1  UNL1        0.0741
      2 C         142.1035  139.4989  155.4444 C.ar    1  UNL1        0.0062
      3 C         141.5640  140.8899  155.5988 C.ar    1  UNL1        0.0034
      4 C         141.7812  141.6408  156.8790 C.ar    1  UNL1        0.0392
      5 C         142.5380  141.0007  158.0048 C.ar    1  UNL1        0.1662
      6 O         142.9061  141.4914  159.3737 O.2     1  UNL1       -0.4237
      7 C         143.6732  140.4036  160.0653 C.ar    1  UNL1        0.2925
      8 N         143.7792  139.2406  159.1239 N.ar    1  UNL1       -0.1945
      9 C         143.0775  139.6097  157.8504 C.ar    1  UNL1        0.1245
     10 N         144.2355  140.4675  161.4544 N.pl3   1  UNL1       -0.2585
     11 C         144.9589  141.6983  161.9148 C.3     1  UNL1        0.1272
     12 C         145.5212  141.7622  163.3039 C.3     1  UNL1        0.1637
     13 O         145.3602  140.5954  164.2327 O.3     1  UNL1       -0.3501
     14 C         144.6368  139.3647  163.7723 C.3     1  UNL1        0.1637
     15 C         144.0745  139.3007  162.3832 C.3     1  UNL1        0.1272
     16 N         142.6170  136.2978  156.9339 N.am    1  UNL1       -0.3024
     17 C         143.3999  137.4677  156.4158 C.2     1  UNL1        0.2474
     18 O         144.7224  137.2466  155.7434 O.2     1  UNL1       -0.2701
     19 H         141.7490  136.4430  157.3752 H       1  UNL1        0.1497
     20 C         143.4861  134.2394  156.8850 C.3     1  UNL1        0.0896
     21 N         143.6961  133.5157  156.6251 N.3     1  UNL1       -0.2740
     22 C         144.4255  132.8636  157.7622 C.3     1  UNL1        0.0591
     23 C         144.9650  131.4726  157.6078 C.3     1  UNL1        0.0161
     24 C         144.7752  130.7336  156.3164 C.3     1  UNL1        0.0028
     25 C         144.0459  131.3856  155.1793 C.3     1  UNL1        0.0161
     26 C         143.5063  132.7767  155.3337 C.3     1  UNL1        0.0591
     27 C         142.9668  134.1677  155.4880 C.3     1  UNL1        0.0356
     28 C         143.1566  134.9068  156.7795 C.3     1  UNL1        0.0745
     29 C         143.8859  134.2547  157.9166 C.3     1  UNL1        0.0356
@<TRIPOS>BOND
     1    20    21    1
     2    21    22    1
     3    22    23    1
     4    23    24    1
     5    24    25    1
     6    26    25    1
     7    26    27    1
     8    27    28    1
     9    28    16    1
    10    16    17   am
    11    17    18    2
    12    17     1    1
    13     1     2   ar
    14     2     3   ar
    15     3     4   ar
    16     4     5   ar
    17     5     6   ar
    18     6     7   ar
    19     7    10    1
    20    10    11    1
    21    11    12    1
    22    12    13    1
    23    13    14    1
    24    14    15    1
    25     7     8   ar
    26     8     9   ar
    27    28    29    1
    28    26    21    1
    29     9     1   ar
    30    29    22    1
    31     9     5   ar
    32    15    10    1
    33    16    19    1
@<TRIPOS>MOLECULE
*****
 29 33 0 0 0
SMALL
GASTEIGER

@<TRIPOS>ATOM
      1 C         142.7100  138.4415  157.3525 C.ar    1  UNL1        0.0741
      2 C         142.5980  139.5775  156.3795 C.ar    1  UNL1        0.0062
      3 C         142.7408  139.3218  154.9084 C.ar    1  UNL1        0.0034
      4 C         142.9956  137.9300  154.4103 C.ar    1  UNL1        0.0392
      5 C         143.1075  136.7940  155.3834 C.ar    1  UNL1        0.1662
      6 O         143.3530  135.3270  155.1896 O.2     1  UNL1       -0.4237
      7 C         143.3619  134.6760  156.5410 C.ar    1  UNL1        0.2925
      8 N         143.1220  135.7407  157.5699 N.ar    1  UNL1       -0.1945
      9 C         142.9647  137.0497  156.8545 C.ar    1  UNL1        0.1245
     10 N         143.5737  133.2165  156.8152 N.pl3   1  UNL1       -0.2585
     11 C         144.7157  132.7740  157.6812 C.3     1  UNL1        0.1272
     12 C         144.9273  131.3146  157.9553 C.3     1  UNL1        0.1637
     13 O         143.9970  130.2976  157.3635 O.3     1  UNL1       -0.3501
     14 C         142.8550  130.7401  156.4975 C.3     1  UNL1        0.1637
     15 C         142.6433  132.1995  156.2233 C.3     1  UNL1        0.1272
     16 N         143.2111  137.7704  159.8120 N.am    1  UNL1       -0.3024
     17 C         142.5672  138.6971  158.8237 C.2     1  UNL1        0.2474
     18 O         141.7806  139.8795  159.3066 O.2     1  UNL1       -0.2701
     19 H         143.7274  136.9944  159.4950 H       1  UNL1        0.1497
     20 C         143.1703  138.2389  161.9968 C.3     1  UNL1        0.0896
     21 N         142.9255  138.2817  162.7543 N.3     1  UNL1       -0.2740
     22 C         144.0065  139.0090  163.4975 C.3     1  UNL1        0.0591
     23 C         143.8638  139.2646  164.9686 C.3     1  UNL1        0.0161
     24 C         142.6400  138.7929  165.6965 C.3     1  UNL1        0.0028
     25 C         141.5590  138.0656  164.9533 C.3     1  UNL1        0.0161
     26 C         141.7017  137.8100  163.4821 C.3     1  UNL1        0.0591
     27 C         141.8445  137.5544  162.0110 C.3     1  UNL1        0.0356
     28 C         143.0683  138.0261  161.2831 C.3     1  UNL1        0.0745
     29 C         144.1493  138.7534  162.0263 C.3     1  UNL1        0.0356
@<TRIPOS>BOND
     1    20    21    1
     2    21    22    1
     3    22    23    1
     4    23    24    1
     5    24    25    1
     6    26    25    1
     7    26    27    1
     8    27    28    1
     9    28    16    1
    10    16    17   am
    11    17    18    2
    12    17     1    1
    13     1     2   ar
    14     2     3   ar
    15     3     4   ar
    16     4     5   ar
    17     5     6   ar
    18     6     7   ar
    19     7    10    1
    20    10    11    1
    21    11    12    1
    22    12    13    1
    23    13    14    1
    24    14    15    1
    25     7     8   ar
    26     8     9   ar
    27    28    29    1
    28    26    21    1
    29     9     1   ar
    30    29    22    1
    31     9     5   ar
    32    15    10    1
    33    16    19    1
@<TRIPOS>MOLECULE
*****
 29 33 0 0 0
SMALL
GASTEIGER

@<TRIPOS>ATOM
      1 C         142.5649  139.0731  162.7615 C.ar    1  UNL1        0.0741
      2 C         143.3461  137.9389  162.1671 C.ar    1  UNL1        0.0062
      3 C         143.7986  138.0073  160.7387 C.ar    1  UNL1        0.0034
      4 C         143.4701  139.2100  159.9046 C.ar    1  UNL1        0.0392
      5 C         142.6890  140.3442  160.4990 C.ar    1  UNL1        0.1662
      6 O         142.2195  141.6486  159.9261 O.2     1  UNL1       -0.4237
      7 C         141.4768  142.3863  161.0004 C.ar    1  UNL1        0.2925
      8 N         141.4872  141.5379  162.2373 N.ar    1  UNL1       -0.1945
      9 C         142.2364  140.2758  161.9274 C.ar    1  UNL1        0.1245
     10 N         140.8361  143.7355  160.8620 N.pl3   1  UNL1       -0.2585
     11 C         140.2710  144.4247  162.0685 C.3     1  UNL1        0.1272
     12 C         139.6304  145.7739  161.9300 C.3     1  UNL1        0.1637
     13 O         139.5548  146.4339  160.5851 O.3     1  UNL1       -0.3501
     14 C         140.1199  145.7447  159.3787 C.3     1  UNL1        0.1637
     15 C         140.7606  144.3955  159.5171 C.3     1  UNL1        0.1272
     16 N         142.0123  140.2594  165.0059 N.am    1  UNL1       -0.3024
     17 C         142.1123  139.0047  164.1900 C.2     1  UNL1        0.2474
     18 O         141.7597  137.6816  164.8025 O.2     1  UNL1       -0.2701
     19 H         142.2437  141.1277  164.6039 H       1  UNL1        0.1497
     20 C         141.1619  140.2067  167.0720 C.3     1  UNL1        0.0896
     21 N         141.1071  140.1226  167.8628 N.3     1  UNL1       -0.2740
     22 C         139.6783  140.4174  168.2118 C.3     1  UNL1        0.0591
     23 C         139.2257  140.3490  169.6402 C.3     1  UNL1        0.0161
     24 C         140.2019  139.9859  170.7197 C.3     1  UNL1        0.0028
     25 C         141.6307  139.6912  170.3707 C.3     1  UNL1        0.0161
     26 C         142.0833  139.7595  168.9423 C.3     1  UNL1        0.0591
     27 C         142.5359  139.8279  167.5139 C.3     1  UNL1        0.0356
     28 C         141.5597  140.1910  166.4343 C.3     1  UNL1        0.0745
     29 C         140.1309  140.4857  166.7833 C.3     1  UNL1        0.0356
@<TRIPOS>BOND
     1    20    21    1
     2    21    22    1
     3    22    23    1
     4    23    24    1
     5    24    25    1
     6    26    25    1
     7    26    27    1
     8    27    28    1
     9    28    16    1
    10    16    17   am
    11    17    18    2
    12    17     1    1
    13     1     2   ar
    14     2     3   ar
    15     3     4   ar
    16     4     5   ar
    17     5     6   ar
    18     6     7   ar
    19     7    10    1
    20    10    11    1
    21    11    12    1
    22    12    13    1
    23    13    14    1
    24    14    15    1
    25     7     8   ar
    26     8     9   ar
    27    28    29    1
    28    26    21    1
    29     9     1   ar
    30    29    22    1
    31     9     5   ar
    32    15    10    1
    33    16    19    1
@<TRIPOS>MOLECULE
*****
 29 33 0 0 0
SMALL
GASTEIGER

@<TRIPOS>ATOM
      1 C         141.0337  138.2556  157.3037 C.ar    1  UNL1        0.0741
      2 C         139.9759  138.9981  156.5423 C.ar    1  UNL1        0.0062
      3 C         139.4120  138.4157  155.2803 C.ar    1  UNL1        0.0034
      4 C         139.9058  137.0908  154.7796 C.ar    1  UNL1        0.0392
      5 C         140.9636  136.3483  155.5410 C.ar    1  UNL1        0.1662
      6 O         141.6414  135.0331  155.2941 O.2     1  UNL1       -0.4237
      7 C         142.6242  134.8026  156.4037 C.ar    1  UNL1        0.2925
      8 N         142.5539  135.9754  157.3362 N.ar    1  UNL1       -0.1945
      9 C         141.5275  136.9306  156.8030 C.ar    1  UNL1        0.1245
     10 N         143.5201  133.6089  156.5541 N.pl3   1  UNL1       -0.2585
     11 C         143.6212  132.6027  155.4464 C.3     1  UNL1        0.1272
     12 C         144.5170  131.4091  155.5969 C.3     1  UNL1        0.1637
     13 O         145.3118  131.2217  156.8552 O.3     1  UNL1       -0.3501
     14 C         145.2107  132.2279  157.9630 C.3     1  UNL1        0.1637
     15 C         144.3148  133.4216  157.8124 C.3     1  UNL1        0.1272
     16 N         143.0075  138.5253  158.9714 N.am    1  UNL1       -0.3024
     17 C         141.5976  138.8379  158.5658 C.2     1  UNL1        0.2474
     18 O         140.7517  139.7329  159.4222 O.2     1  UNL1       -0.2701
     19 H         143.5627  137.9379  158.4093 H       1  UNL1        0.1497
     20 C         143.8732  139.5577  160.7545 C.3     1  UNL1        0.0896
     21 N         144.1355  139.6899  161.4956 N.3     1  UNL1       -0.2740
     22 C         144.6101  141.1127  161.5185 C.3     1  UNL1        0.0591
     23 C         145.1740  141.6950  162.7805 C.3     1  UNL1        0.0161
     24 C         145.2634  140.8546  164.0197 C.3     1  UNL1        0.0028
     25 C         144.7888  139.4318  163.9968 C.3     1  UNL1        0.0161
     26 C         144.2249  138.8495  162.7348 C.3     1  UNL1        0.0591
     27 C         143.6609  138.2672  161.4727 C.3     1  UNL1        0.0356
     28 C         143.5715  139.1076  160.2335 C.3     1  UNL1        0.0745
     29 C         144.0461  140.5304  160.2563 C.3     1  UNL1        0.0356
@<TRIPOS>BOND
     1    20    21    1
     2    21    22    1
     3    22    23    1
     4    23    24    1
     5    24    25    1
     6    26    25    1
     7    26    27    1
     8    27    28    1
     9    28    16    1
    10    16    17   am
    11    17    18    2
    12    17     1    1
    13     1     2   ar
    14     2     3   ar
    15     3     4   ar
    16     4     5   ar
    17     5     6   ar
    18     6     7   ar
    19     7    10    1
    20    10    11    1
    21    11    12    1
    22    12    13    1
    23    13    14    1
    24    14    15    1
    25     7     8   ar
    26     8     9   ar
    27    28    29    1
    28    26    21    1
    29     9     1   ar
    30    29    22    1
    31     9     5   ar
    32    15    10    1
    33    16    19    1
@<TRIPOS>MOLECULE
*****
 29 33 0 0 0
SMALL
GASTEIGER

@<TRIPOS>ATOM
      1 C         142.7466  138.6334  157.4006 C.ar    1  UNL1        0.0741
      2 C         142.6338  139.7759  156.4352 C.ar    1  UNL1        0.0062
      3 C         142.7485  139.5260  154.9607 C.ar    1  UNL1        0.0034
      4 C         142.9760  138.1335  154.4515 C.ar    1  UNL1        0.0392
      5 C         143.0888  136.9910  155.4168 C.ar    1  UNL1        0.1662
      6 O         143.3111  135.5219  155.2116 O.2     1  UNL1       -0.4237
      7 C         143.3338  134.8638  156.5594 C.ar    1  UNL1        0.2925
      8 N         143.1255  135.9262  157.5975 N.ar    1  UNL1       -0.1945
      9 C         142.9741  137.2410  156.8913 C.ar    1  UNL1        0.1245
     10 N         143.5303  133.4002  156.8227 N.pl3   1  UNL1       -0.2585
     11 C         144.6537  132.9409  157.7042 C.3     1  UNL1        0.1272
     12 C         144.8501  131.4774  157.9675 C.3     1  UNL1        0.1637
     13 O         143.9232  130.4731  157.3493 O.3     1  UNL1       -0.3501
     14 C         142.7999  130.9323  156.4678 C.3     1  UNL1        0.1637
     15 C         142.6034  132.3959  156.2045 C.3     1  UNL1        0.1272
     16 N         143.1745  137.8809  159.8502 N.am    1  UNL1       -0.3024
     17 C         142.6319  138.8833  158.8752 C.2     1  UNL1        0.2474
     18 O         141.9745  140.1356  159.3747 O.2     1  UNL1       -0.2701
     19 H         143.6060  137.0590  159.5223 H       1  UNL1        0.1497
     20 C         142.8352  138.1591  162.0416 C.3     1  UNL1        0.0896
     21 N         142.9452  138.3807  162.7994 N.3     1  UNL1       -0.2740
     22 C         141.7490  137.8810  163.5540 C.3     1  UNL1        0.0591
     23 C         141.6343  138.1308  165.0285 C.3     1  UNL1        0.0161
     24 C         142.7158  138.8804  165.7485 C.3     1  UNL1        0.0028
     25 C         143.9120  139.3801  164.9939 C.3     1  UNL1        0.0161
     26 C         144.0267  139.1302  163.5194 C.3     1  UNL1        0.0591
     27 C         144.1414  138.8804  162.0448 C.3     1  UNL1        0.0356
     28 C         143.0599  138.1308  161.3248 C.3     1  UNL1        0.0745
     29 C         141.8636  137.6311  162.0793 C.3     1  UNL1        0.0356
@<TRIPOS>BOND
     1    20    21    1
     2    21    22    1
     3    22    23    1
     4    23    24    1
     5    24    25    1
     6    26    25    1
     7    26    27    1
     8    27    28    1
     9    28    16    1
    10    16    17   am
    11    17    18    2
    12    17     1    1
    13     1     2   ar
    14     2     3   ar
    15     3     4   ar
    16     4     5   ar
    17     5     6   ar
    18     6     7   ar
    19     7    10    1
    20    10    11    1
    21    11    12    1
    22    12    13    1
    23    13    14    1
    24    14    15    1
    25     7     8   ar
    26     8     9   ar
    27    28    29    1
    28    26    21    1
    29     9     1   ar
    30    29    22    1
    31     9     5   ar
    32    15    10    1
    33    16    19    1
@<TRIPOS>MOLECULE
*****
 29 33 0 0 0
SMALL
GASTEIGER

@<TRIPOS>ATOM
      1 C         142.9744  138.6736  156.6515 C.ar    1  UNL1        0.0741
      2 C         143.1659  139.8040  155.6844 C.ar    1  UNL1        0.0062
      3 C         142.6998  141.1841  156.0422 C.ar    1  UNL1        0.0034
      4 C         142.0423  141.4338  157.3670 C.ar    1  UNL1        0.0392
      5 C         141.8508  140.3034  158.3342 C.ar    1  UNL1        0.1662
      6 O         141.2406  140.2462  159.7032 O.2     1  UNL1       -0.4237
      7 C         141.3295  138.8307  160.1916 C.ar    1  UNL1        0.2925
      8 N         141.9947  138.0130  159.1244 N.ar    1  UNL1       -0.1945
      9 C         142.3168  138.9233  157.9764 C.ar    1  UNL1        0.1245
     10 N         140.8393  138.3222  161.5150 N.pl3   1  UNL1       -0.2585
     11 C         141.8216  137.8911  162.5634 C.3     1  UNL1        0.1272
     12 C         141.3314  137.3826  163.8866 C.3     1  UNL1        0.1637
     13 O         139.8588  137.3052  164.1615 O.3     1  UNL1       -0.3501
     14 C         138.8765  137.7363  163.1131 C.3     1  UNL1        0.1637
     15 C         139.3667  138.2448  161.7899 C.3     1  UNL1        0.1272
     16 N         142.6178  136.1002  156.6807 N.am    1  UNL1       -0.3024
     17 C         143.4404  137.2934  156.2938 C.2     1  UNL1        0.2474
     18 O         144.7290  137.1063  155.5493 O.2     1  UNL1       -0.2701
     19 H         141.7720  136.2230  157.1694 H       1  UNL1        0.1497
     20 C         143.4010  134.0386  156.3190 C.3     1  UNL1        0.0896
     21 N         143.5497  133.3398  155.9653 N.3     1  UNL1       -0.2740
     22 C         144.3995  132.5625  156.9264 C.3     1  UNL1        0.0591
     23 C         144.8655  131.1824  156.5687 C.3     1  UNL1        0.0161
     24 C         144.4817  130.5795  155.2499 C.3     1  UNL1        0.0028
     25 C         143.6319  131.3568  154.2888 C.3     1  UNL1        0.0161
     26 C         143.1659  132.7370  154.6465 C.3     1  UNL1        0.0591
     27 C         142.7000  134.1171  155.0042 C.3     1  UNL1        0.0356
     28 C         143.0837  134.7201  156.3230 C.3     1  UNL1        0.0745
     29 C         143.9335  133.9428  157.2841 C.3     1  UNL1        0.0356
@<TRIPOS>BOND
     1    20    21    1
     2    21    22    1
     3    22    23    1
     4    23    24    1
     5    24    25    1
     6    26    25    1
     7    26    27    1
     8    27    28    1
     9    28    16    1
    10    16    17   am
    11    17    18    2
    12    17     1    1
    13     1     2   ar
    14     2     3   ar
    15     3     4   ar
    16     4     5   ar
    17     5     6   ar
    18     6     7   ar
    19     7    10    1
    20    10    11    1
    21    11    12    1
    22    12    13    1
    23    13    14    1
    24    14    15    1
    25     7     8   ar
    26     8     9   ar
    27    28    29    1
    28    26    21    1
    29     9     1   ar
    30    29    22    1
    31     9     5   ar
    32    15    10    1
    33    16    19    1
@<TRIPOS>MOLECULE
*****
 29 33 0 0 0
SMALL
GASTEIGER

@<TRIPOS>ATOM
      1 C         143.0718  140.4295  159.6535 C.ar    1  UNL1        0.0741
      2 C         143.7304  141.7563  159.4171 C.ar    1  UNL1        0.0062
      3 C         144.4427  142.0201  158.1237 C.ar    1  UNL1        0.0034
      4 C         144.4965  140.9572  157.0667 C.ar    1  UNL1        0.0392
      5 C         143.8379  139.6304  157.3030 C.ar    1  UNL1        0.1662
      6 O         143.7258  138.3998  156.4528 O.2     1  UNL1       -0.4237
      7 C         142.9443  137.3754  157.2207 C.ar    1  UNL1        0.2925
      8 N         142.5733  137.9728  158.5456 N.ar    1  UNL1       -0.1945
      9 C         143.1256  139.3666  158.5965 C.ar    1  UNL1        0.1245
     10 N         142.5951  135.9956  156.7469 N.pl3   1  UNL1       -0.2585
     11 C         141.5286  135.8065  155.7092 C.3     1  UNL1        0.1272
     12 C         141.1794  134.4268  155.2354 C.3     1  UNL1        0.1637
     13 O         141.8967  133.2362  155.7994 O.3     1  UNL1       -0.3501
     14 C         142.9632  133.4253  156.8371 C.3     1  UNL1        0.1637
     15 C         143.3123  134.8050  157.3108 C.3     1  UNL1        0.1272
     16 N         140.9905  139.5527  160.9377 N.am    1  UNL1       -0.3024
     17 C         142.3595  140.1656  160.9469 C.2     1  UNL1        0.2474
     18 O         143.0162  140.5147  162.2496 O.2     1  UNL1       -0.2701
     19 H         140.5595  139.3237  160.0827 H       1  UNL1        0.1497
     20 C         139.9837  138.9752  162.8475 C.3     1  UNL1        0.0896
     21 N         139.5657  139.0250  163.5245 N.3     1  UNL1       -0.2740
     22 C         139.5508  137.6415  164.1038 C.3     1  UNL1        0.0591
     23 C         138.8385  137.3776  165.3972 C.3     1  UNL1        0.0161
     24 C         138.1410  138.4972  166.1112 C.3     1  UNL1        0.0028
     25 C         138.1558  139.8807  165.5319 C.3     1  UNL1        0.0161
     26 C         138.8682  140.1446  164.2385 C.3     1  UNL1        0.0591
     27 C         139.5806  140.4085  162.9452 C.3     1  UNL1        0.0356
     28 C         140.2781  139.2888  162.2310 C.3     1  UNL1        0.0745
     29 C         140.2632  137.9053  162.8104 C.3     1  UNL1        0.0356
@<TRIPOS>BOND
     1    20    21    1
     2    21    22    1
     3    22    23    1
     4    23    24    1
     5    24    25    1
     6    26    25    1
     7    26    27    1
     8    27    28    1
     9    28    16    1
    10    16    17   am
    11    17    18    2
    12    17     1    1
    13     1     2   ar
    14     2     3   ar
    15     3     4   ar
    16     4     5   ar
    17     5     6   ar
    18     6     7   ar
    19     7    10    1
    20    10    11    1
    21    11    12    1
    22    12    13    1
    23    13    14    1
    24    14    15    1
    25     7     8   ar
    26     8     9   ar
    27    28    29    1
    28    26    21    1
    29     9     1   ar
    30    29    22    1
    31     9     5   ar
    32    15    10    1
    33    16    19    1
@<TRIPOS>MOLECULE
*****
 29 33 0 0 0
SMALL
GASTEIGER

@<TRIPOS>ATOM
      1 C         140.7763  143.8802  163.3830 C.ar    1  UNL1        0.0741
      2 C         140.2752  145.2879  163.2521 C.ar    1  UNL1        0.0062
      3 C         140.0787  145.8906  161.8927 C.ar    1  UNL1        0.0034
      4 C         140.3834  145.0857  160.6642 C.ar    1  UNL1        0.0392
      5 C         140.8845  143.6779  160.7951 C.ar    1  UNL1        0.1662
      6 O         141.2662  142.6492  159.7723 O.2     1  UNL1       -0.4237
      7 C         141.6986  141.4107  160.4997 C.ar    1  UNL1        0.2925
      8 N         141.5842  141.6739  161.9719 N.ar    1  UNL1       -0.1945
      9 C         141.0810  143.0752  162.1545 C.ar    1  UNL1        0.1245
     10 N         142.1639  140.1331  159.8659 N.pl3   1  UNL1       -0.2585
     11 C         142.3365  140.0534  158.3780 C.3     1  UNL1        0.1272
     12 C         142.8017  138.7760  157.7444 C.3     1  UNL1        0.1637
     13 O         143.0943  137.5782  158.5986 O.3     1  UNL1       -0.3501
     14 C         142.9217  137.6578  160.0865 C.3     1  UNL1        0.1637
     15 C         142.4565  138.9353  160.7201 C.3     1  UNL1        0.1272
     16 N         142.1580  142.3972  165.0084 N.am    1  UNL1       -0.3024
     17 C         140.9729  143.2773  164.7424 C.2     1  UNL1        0.2474
     18 O         139.9842  143.5546  165.8359 O.2     1  UNL1       -0.2701
     19 H         142.8069  142.2152  164.2907 H       1  UNL1        0.1497
     20 C         142.3646  141.3401  166.9665 C.3     1  UNL1        0.0896
     21 N         142.5512  141.1916  167.7272 N.3     1  UNL1       -0.2740
     22 C         142.0752  139.7965  168.0050 C.3     1  UNL1        0.0591
     23 C         142.2718  139.1937  169.3643 C.3     1  UNL1        0.0161
     24 C         142.9443  139.9860  170.4460 C.3     1  UNL1        0.0028
     25 C         143.4202  141.3811  170.1682 C.3     1  UNL1        0.0161
     26 C         143.2236  141.9839  168.8088 C.3     1  UNL1        0.0591
     27 C         143.0271  142.5867  167.4495 C.3     1  UNL1        0.0356
     28 C         142.3546  141.7944  166.3678 C.3     1  UNL1        0.0745
     29 C         141.8787  140.3993  166.6455 C.3     1  UNL1        0.0356
@<TRIPOS>BOND
     1    20    21    1
     2    21    22    1
     3    22    23    1
     4    23    24    1
     5    24    25    1
     6    26    25    1
     7    26    27    1
     8    27    28    1
     9    28    16    1
    10    16    17   am
    11    17    18    2
    12    17     1    1
    13     1     2   ar
    14     2     3   ar
    15     3     4   ar
    16     4     5   ar
    17     5     6   ar
    18     6     7   ar
    19     7    10    1
    20    10    11    1
    21    11    12    1
    22    12    13    1
    23    13    14    1
    24    14    15    1
    25     7     8   ar
    26     8     9   ar
    27    28    29    1
    28    26    21    1
    29     9     1   ar
    30    29    22    1
    31     9     5   ar
    32    15    10    1
    33    16    19    1
