@<TRIPOS>MOLECULE
*****
 35 39 0 0 0
SMALL
GASTEIGER

@<TRIPOS>ATOM
      1 C         143.2591  143.5014  162.8678 C.2     1  UNL1        0.1157
      2 N         143.4561  143.6259  161.3860 N.2     1  UNL1       -0.1790
      3 N         142.1036  143.7283  160.7457 N.pl3   1  UNL1       -0.2060
      4 C         141.6791  143.8694  159.3139 C.ar    1  UNL1        0.1052
      5 C         142.7119  143.9306  158.2279 C.ar    1  UNL1        0.0490
      6 C         142.2874  144.0717  156.7962 C.ar    1  UNL1        0.1416
      7 F         143.3203  144.1330  155.7102 F       1  UNL1       -0.2041
      8 C         140.8300  144.1515  156.4505 C.ar    1  UNL1        0.0328
      9 C         139.7971  144.0902  157.5364 C.ar    1  UNL1        0.0405
     10 C         140.2216  143.9492  158.9681 C.ar    1  UNL1        0.1537
     11 O         139.1887  143.8879  160.0541 O.3     1  UNL1       -0.4723
     12 C         139.6133  143.7468  161.4858 C.3     1  UNL1        0.2277
     13 C         141.0707  143.6670  161.8316 C.3     1  UNL1        0.1488
     14 C         141.7849  143.5268  163.1432 C.3     1  UNL1        0.0806
     15 C         140.3993  143.5227  163.7179 C.ar    1  UNL1       -0.0157
     16 C         139.5623  142.2799  163.6484 C.ar    1  UNL1       -0.0039
     17 C         138.1767  142.2758  164.2231 C.ar    1  UNL1       -0.0003
     18 C         137.6282  143.5144  164.8673 C.ar    1  UNL1       -0.0000
     19 C         138.4653  144.7571  164.9369 C.ar    1  UNL1       -0.0003
     20 C         139.8509  144.7613  164.3622 C.ar    1  UNL1       -0.0039
     21 C         145.2489  142.1763  163.8852 C.3     1  UNL1        0.0786
     22 C         144.3457  143.3738  163.8941 C.2     1  UNL1        0.1887
     23 O         144.5291  144.4439  164.9292 O.2     1  UNL1       -0.2900
     24 C         142.2094  143.3857  164.5750 C.3     1  UNL1        0.0130
     25 C         141.8711  142.1395  165.3382 C.3     1  UNL1        0.0181
     26 C         142.3204  141.9863  166.7611 C.3     1  UNL1        0.0722
     27 N         141.3137  141.7214  167.8412 N.3     1  UNL1       -0.2708
     28 C         141.2524  142.7424  168.9383 C.3     1  UNL1        0.0936
     29 C         140.3636  142.7646  170.1465 C.3     1  UNL1        0.1067
     30 N         139.3167  141.7714  170.5559 N.am    1  UNL1       -0.3029
     31 C         138.9001  140.5107  169.8582 C.2     1  UNL1        0.2239
     32 O         137.8122  139.7249  170.5285 O.2     1  UNL1       -0.2751
     33 C         139.4273  139.9317  168.5788 C.3     1  UNL1        0.1023
     34 C         140.5015  140.4706  167.6811 C.3     1  UNL1        0.0818
     35 H         138.8401  141.9738  171.3932 H       1  UNL1        0.1495
@<TRIPOS>BOND
     1    21    22    1
     2    22    23    2
     3    22     1    1
     4     1     2    2
     5     2     3    1
     6     3     4    1
     7     4     5   ar
     8     5     6   ar
     9     6     7    1
    10     6     8   ar
    11     8     9   ar
    12     9    10   ar
    13    10    11    1
    14    11    12    1
    15    13    12    1
    16    13    14    1
    17    14    24    1
    18    24    25    1
    19    25    26    1
    20    26    27    1
    21    27    28    1
    22    28    29    1
    23    29    30    1
    24    30    31   am
    25    31    32    2
    26    31    33    1
    27    33    34    1
    28    14    15    1
    29    15    16   ar
    30    16    17   ar
    31    17    18   ar
    32    18    19   ar
    33    19    20   ar
    34    14     1    1
    35    34    27    1
    36    20    15   ar
    37    13     3    1
    38    10     4   ar
    39    30    35    1
@<TRIPOS>MOLECULE
*****
 35 39 0 0 0
SMALL
GASTEIGER

@<TRIPOS>ATOM
      1 C         143.2214  142.2228  162.0507 C.2     1  UNL1        0.1157
      2 N         143.3548  142.7313  160.6459 N.2     1  UNL1       -0.1790
      3 N         142.1572  143.5831  160.3456 N.pl3   1  UNL1       -0.2060
      4 C         141.7492  144.3447  159.1194 C.ar    1  UNL1        0.1052
      5 C         142.6228  144.3268  157.9002 C.ar    1  UNL1        0.0490
      6 C         142.2149  145.0884  156.6740 C.ar    1  UNL1        0.1416
      7 F         143.0885  145.0706  155.4547 F       1  UNL1       -0.2041
      8 C         140.9334  145.8680  156.6671 C.ar    1  UNL1        0.0328
      9 C         140.0598  145.8859  157.8863 C.ar    1  UNL1        0.0405
     10 C         140.4677  145.1242  159.1124 C.ar    1  UNL1        0.1537
     11 O         139.5941  145.1421  160.3317 O.3     1  UNL1       -0.4723
     12 C         140.0020  144.3805  161.5578 C.3     1  UNL1        0.2277
     13 C         141.2836  143.6010  161.5648 C.3     1  UNL1        0.1488
     14 C         141.9413  142.7603  162.6186 C.3     1  UNL1        0.0806
     15 C         140.7465  143.1385  163.4429 C.ar    1  UNL1       -0.0157
     16 C         140.6836  144.4864  164.0980 C.ar    1  UNL1       -0.0039
     17 C         139.4888  144.8647  164.9224 C.ar    1  UNL1       -0.0003
     18 C         138.3569  143.8950  165.0915 C.ar    1  UNL1       -0.0000
     19 C         138.4198  142.5471  164.4363 C.ar    1  UNL1       -0.0003
     20 C         139.6146  142.1688  163.6120 C.ar    1  UNL1       -0.0039
     21 C         145.5384  141.8657  163.1706 C.3     1  UNL1        0.0786
     22 C         144.1968  141.3330  162.7627 C.2     1  UNL1        0.1887
     23 O         143.8306  139.9105  163.0667 O.2     1  UNL1       -0.2900
     24 C         142.3492  141.9986  163.8449 C.3     1  UNL1        0.0130
     25 C         142.7357  142.7367  165.0922 C.3     1  UNL1        0.0181
     26 C         143.1363  141.9749  166.3206 C.3     1  UNL1        0.0722
     27 N         142.5001  142.2933  167.6413 N.3     1  UNL1       -0.2708
     28 C         143.4280  142.3268  168.8194 C.3     1  UNL1        0.0936
     29 C         143.1051  142.6114  170.2563 C.3     1  UNL1        0.1067
     30 N         141.7746  142.9327  170.8700 N.am    1  UNL1       -0.3029
     31 C         140.4385  143.0488  170.1984 C.2     1  UNL1        0.2239
     32 O         139.2855  143.3861  171.0967 O.2     1  UNL1       -0.2751
     33 C         140.1027  142.8723  168.7472 C.3     1  UNL1        0.1023
     34 C         141.0203  142.5360  167.6091 C.3     1  UNL1        0.0818
     35 H         141.7789  143.0879  171.8422 H       1  UNL1        0.1495
@<TRIPOS>BOND
     1    21    22    1
     2    22    23    2
     3    22     1    1
     4     1     2    2
     5     2     3    1
     6     3     4    1
     7     4     5   ar
     8     5     6   ar
     9     6     7    1
    10     6     8   ar
    11     8     9   ar
    12     9    10   ar
    13    10    11    1
    14    11    12    1
    15    13    12    1
    16    13    14    1
    17    14    24    1
    18    24    25    1
    19    25    26    1
    20    26    27    1
    21    27    28    1
    22    28    29    1
    23    29    30    1
    24    30    31   am
    25    31    32    2
    26    31    33    1
    27    33    34    1
    28    14    15    1
    29    15    16   ar
    30    16    17   ar
    31    17    18   ar
    32    18    19   ar
    33    19    20   ar
    34    14     1    1
    35    34    27    1
    36    20    15   ar
    37    13     3    1
    38    10     4   ar
    39    30    35    1
@<TRIPOS>MOLECULE
*****
 35 39 0 0 0
SMALL
GASTEIGER

@<TRIPOS>ATOM
      1 C         140.5491  138.8745  164.1557 C.2     1  UNL1        0.1157
      2 N         139.7917  138.9773  165.4464 N.2     1  UNL1       -0.1790
      3 N         140.5337  139.9213  166.3453 N.pl3   1  UNL1       -0.2060
      4 C         140.2592  140.4054  167.7383 C.ar    1  UNL1        0.1052
      5 C         139.0432  139.9247  168.4733 C.ar    1  UNL1        0.0490
      6 C         138.7687  140.4087  169.8663 C.ar    1  UNL1        0.1416
      7 F         137.5527  139.9280  170.6014 F       1  UNL1       -0.2041
      8 C         139.7102  141.3735  170.5242 C.ar    1  UNL1        0.0328
      9 C         140.9262  141.8542  169.7892 C.ar    1  UNL1        0.0405
     10 C         141.2007  141.3701  168.3963 C.ar    1  UNL1        0.1537
     11 O         142.4167  141.8508  167.6612 O.3     1  UNL1       -0.4723
     12 C         142.6912  141.3668  166.2682 C.3     1  UNL1        0.2277
     13 C         141.7497  140.4020  165.6103 C.3     1  UNL1        0.1488
     14 C         141.7592  139.7550  164.2570 C.3     1  UNL1        0.0806
     15 C         143.0267  140.5344  164.0671 C.ar    1  UNL1       -0.0157
     16 C         142.9665  142.0036  163.7709 C.ar    1  UNL1       -0.0039
     17 C         144.2340  142.7830  163.5810 C.ar    1  UNL1       -0.0003
     18 C         145.5617  142.0932  163.6873 C.ar    1  UNL1       -0.0000
     19 C         145.6219  140.6239  163.9835 C.ar    1  UNL1       -0.0003
     20 C         144.3544  139.8445  164.1734 C.ar    1  UNL1       -0.0039
     21 C         138.8591  138.2822  162.2734 C.3     1  UNL1        0.0786
     22 C         140.1640  138.0380  162.9716 C.2     1  UNL1        0.1887
     23 O         141.0838  136.9574  162.4858 O.2     1  UNL1       -0.2900
     24 C         142.0337  139.2710  162.8640 C.3     1  UNL1        0.0130
     25 C         142.2148  140.2580  161.7491 C.3     1  UNL1        0.0181
     26 C         141.0232  140.7513  160.9833 C.3     1  UNL1        0.0722
     27 N         140.4243  142.0879  161.3071 N.3     1  UNL1       -0.2708
     28 C         139.0870  142.0547  161.9858 C.3     1  UNL1        0.0936
     29 C         138.2371  143.2064  162.4344 C.3     1  UNL1        0.1067
     30 N         138.5145  144.6757  162.3152 N.am    1  UNL1       -0.3029
     31 C         139.7103  145.3562  161.7178 C.2     1  UNL1        0.2239
     32 O         139.6896  146.8557  161.7504 O.2     1  UNL1       -0.2751
     33 C         140.9241  144.7355  161.0922 C.3     1  UNL1        0.1023
     34 C         141.2419  143.2810  160.9094 C.3     1  UNL1        0.0818
     35 H         137.8198  145.2723  162.6767 H       1  UNL1        0.1495
@<TRIPOS>BOND
     1    21    22    1
     2    22    23    2
     3    22     1    1
     4     1     2    2
     5     2     3    1
     6     3     4    1
     7     4     5   ar
     8     5     6   ar
     9     6     7    1
    10     6     8   ar
    11     8     9   ar
    12     9    10   ar
    13    10    11    1
    14    11    12    1
    15    13    12    1
    16    13    14    1
    17    14    24    1
    18    24    25    1
    19    25    26    1
    20    26    27    1
    21    27    28    1
    22    28    29    1
    23    29    30    1
    24    30    31   am
    25    31    32    2
    26    31    33    1
    27    33    34    1
    28    14    15    1
    29    15    16   ar
    30    16    17   ar
    31    17    18   ar
    32    18    19   ar
    33    19    20   ar
    34    14     1    1
    35    34    27    1
    36    20    15   ar
    37    13     3    1
    38    10     4   ar
    39    30    35    1
@<TRIPOS>MOLECULE
*****
 35 39 0 0 0
SMALL
GASTEIGER

@<TRIPOS>ATOM
      1 C         143.3155  143.4085  162.8403 C.2     1  UNL1        0.1157
      2 N         143.4916  143.5614  161.3585 N.2     1  UNL1       -0.1790
      3 N         142.1319  143.7116  160.7432 N.pl3   1  UNL1       -0.2060
      4 C         141.6881  143.8953  159.3221 C.ar    1  UNL1        0.1052
      5 C         142.7045  143.9554  158.2207 C.ar    1  UNL1        0.0490
      6 C         142.2607  144.1391  156.7998 C.ar    1  UNL1        0.1416
      7 F         143.2772  144.1992  155.6983 F       1  UNL1       -0.2041
      8 C         140.8003  144.2627  156.4802 C.ar    1  UNL1        0.0328
      9 C         139.7839  144.2027  157.5816 C.ar    1  UNL1        0.0405
     10 C         140.2277  144.0189  159.0026 C.ar    1  UNL1        0.1537
     11 O         139.2112  143.9589  160.1041 O.3     1  UNL1       -0.4723
     12 C         139.6551  143.7752  161.5250 C.3     1  UNL1        0.2277
     13 C         141.1154  143.6515  161.8446 C.3     1  UNL1        0.1488
     14 C         141.8469  143.4642  163.1407 C.3     1  UNL1        0.0806
     15 C         140.4712  143.4815  163.7382 C.ar    1  UNL1       -0.0157
     16 C         139.6108  142.2544  163.6753 C.ar    1  UNL1       -0.0039
     17 C         138.2349  142.2717  164.2728 C.ar    1  UNL1       -0.0003
     18 C         137.7196  143.5160  164.9332 C.ar    1  UNL1       -0.0000
     19 C         138.5800  144.7431  164.9961 C.ar    1  UNL1       -0.0003
     20 C         139.9559  144.7258  164.3985 C.ar    1  UNL1       -0.0039
     21 C         145.3387  142.0535  163.7461 C.3     1  UNL1        0.0786
     22 C         144.4149  143.2310  163.8452 C.2     1  UNL1        0.1887
     23 O         144.5905  144.2312  164.9492 O.2     1  UNL1       -0.2900
     24 C         142.2908  143.2805  164.5617 C.3     1  UNL1        0.0130
     25 C         141.8532  142.0712  165.3337 C.3     1  UNL1        0.0181
     26 C         142.7700  141.4584  166.3506 C.3     1  UNL1        0.0722
     27 N         142.3198  141.3106  167.7738 N.3     1  UNL1       -0.2708
     28 C         142.5904  139.9780  168.4069 C.3     1  UNL1        0.0936
     29 C         142.2666  139.5206  169.7984 C.3     1  UNL1        0.1067
     30 N         141.5921  140.2829  170.9002 N.am    1  UNL1       -0.3029
     31 C         141.0749  141.6908  170.8828 C.2     1  UNL1        0.2239
     32 O         140.4449  142.1685  172.1575 O.2     1  UNL1       -0.2751
     33 C         141.1044  142.6841  169.7593 C.3     1  UNL1        0.1023
     34 C         141.6584  142.5149  168.3756 C.3     1  UNL1        0.0818
     35 H         141.4732  139.7946  171.7468 H       1  UNL1        0.1495
@<TRIPOS>BOND
     1    21    22    1
     2    22    23    2
     3    22     1    1
     4     1     2    2
     5     2     3    1
     6     3     4    1
     7     4     5   ar
     8     5     6   ar
     9     6     7    1
    10     6     8   ar
    11     8     9   ar
    12     9    10   ar
    13    10    11    1
    14    11    12    1
    15    13    12    1
    16    13    14    1
    17    14    24    1
    18    24    25    1
    19    25    26    1
    20    26    27    1
    21    27    28    1
    22    28    29    1
    23    29    30    1
    24    30    31   am
    25    31    32    2
    26    31    33    1
    27    33    34    1
    28    14    15    1
    29    15    16   ar
    30    16    17   ar
    31    17    18   ar
    32    18    19   ar
    33    19    20   ar
    34    14     1    1
    35    34    27    1
    36    20    15   ar
    37    13     3    1
    38    10     4   ar
    39    30    35    1
@<TRIPOS>MOLECULE
*****
 35 39 0 0 0
SMALL
GASTEIGER

@<TRIPOS>ATOM
      1 C         143.6741  139.6887  163.0238 C.2     1  UNL1        0.1157
      2 N         143.7787  139.3830  161.5590 N.2     1  UNL1       -0.1790
      3 N         142.3940  139.1398  161.0362 N.pl3   1  UNL1       -0.2060
      4 C         141.8836  138.7969  159.6680 C.ar    1  UNL1        0.1052
      5 C         142.8441  138.6416  158.5264 C.ar    1  UNL1        0.0490
      6 C         142.3336  138.2987  157.1582 C.ar    1  UNL1        0.1416
      7 F         143.2941  138.1434  156.0165 F       1  UNL1       -0.2041
      8 C         140.8627  138.1112  156.9317 C.ar    1  UNL1        0.0328
      9 C         139.9023  138.2664  158.0733 C.ar    1  UNL1        0.0405
     10 C         140.4127  138.6093  159.4415 C.ar    1  UNL1        0.1537
     11 O         139.4523  138.7646  160.5832 O.3     1  UNL1       -0.4723
     12 C         139.9627  139.1074  161.9514 C.3     1  UNL1        0.2277
     13 C         141.4336  139.2950  162.1779 C.3     1  UNL1        0.1488
     14 C         142.2247  139.6343  163.4063 C.3     1  UNL1        0.0806
     15 C         140.8820  139.6516  164.0748 C.ar    1  UNL1       -0.0157
     16 C         140.4004  138.4431  164.8215 C.ar    1  UNL1       -0.0039
     17 C         139.0577  138.4604  165.4901 C.ar    1  UNL1       -0.0003
     18 C         138.1966  139.6861  165.4119 C.ar    1  UNL1       -0.0000
     19 C         138.6782  140.8946  164.6651 C.ar    1  UNL1       -0.0003
     20 C         140.0210  140.8773  163.9966 C.ar    1  UNL1       -0.0039
     21 C         145.5738  141.2824  163.7992 C.3     1  UNL1        0.0786
     22 C         144.8181  139.9949  163.9445 C.2     1  UNL1        0.1887
     23 O         145.2062  139.0136  165.0105 O.2     1  UNL1       -0.2900
     24 C         142.7351  139.9772  164.7745 C.3     1  UNL1        0.0130
     25 C         142.3932  141.3004  165.3927 C.3     1  UNL1        0.0181
     26 C         142.9083  141.6455  166.7585 C.3     1  UNL1        0.0722
     27 N         142.1752  141.1716  167.9784 N.3     1  UNL1       -0.2708
     28 C         142.9882  141.0919  169.2364 C.3     1  UNL1        0.0936
     29 C         142.5528  140.6611  170.6057 C.3     1  UNL1        0.1067
     30 N         141.1968  140.2035  171.0550 N.am    1  UNL1       -0.3029
     31 C         139.9414  140.0638  170.2462 C.2     1  UNL1        0.2239
     32 O         138.7361  139.5762  170.9943 O.2     1  UNL1       -0.2751
     33 C         139.7317  140.3471  168.7882 C.3     1  UNL1        0.1023
     34 C         140.7259  140.8402  167.7790 C.3     1  UNL1        0.0818
     35 H         141.1208  139.9631  172.0067 H       1  UNL1        0.1495
@<TRIPOS>BOND
     1    21    22    1
     2    22    23    2
     3    22     1    1
     4     1     2    2
     5     2     3    1
     6     3     4    1
     7     4     5   ar
     8     5     6   ar
     9     6     7    1
    10     6     8   ar
    11     8     9   ar
    12     9    10   ar
    13    10    11    1
    14    11    12    1
    15    13    12    1
    16    13    14    1
    17    14    24    1
    18    24    25    1
    19    25    26    1
    20    26    27    1
    21    27    28    1
    22    28    29    1
    23    29    30    1
    24    30    31   am
    25    31    32    2
    26    31    33    1
    27    33    34    1
    28    14    15    1
    29    15    16   ar
    30    16    17   ar
    31    17    18   ar
    32    18    19   ar
    33    19    20   ar
    34    14     1    1
    35    34    27    1
    36    20    15   ar
    37    13     3    1
    38    10     4   ar
    39    30    35    1
@<TRIPOS>MOLECULE
*****
 35 39 0 0 0
SMALL
GASTEIGER

@<TRIPOS>ATOM
      1 C         140.0306  143.5573  163.3922 C.2     1  UNL1        0.1157
      2 N         139.7259  144.2806  162.1139 N.2     1  UNL1       -0.1790
      3 N         140.8820  144.0781  161.1799 N.pl3   1  UNL1       -0.2060
      4 C         141.1383  144.5567  159.7816 C.ar    1  UNL1        0.1052
      5 C         140.1192  145.4052  159.0806 C.ar    1  UNL1        0.0490
      6 C         140.3756  145.8838  157.6824 C.ar    1  UNL1        0.1416
      7 F         139.3564  146.7324  156.9814 F       1  UNL1       -0.2041
      8 C         141.6511  145.5139  156.9850 C.ar    1  UNL1        0.0328
      9 C         142.6702  144.6654  157.6860 C.ar    1  UNL1        0.0405
     10 C         142.4138  144.1868  159.0842 C.ar    1  UNL1        0.1537
     11 O         143.4330  143.3382  159.7852 O.3     1  UNL1       -0.4723
     12 C         143.1766  142.8596  161.1835 C.3     1  UNL1        0.2277
     13 C         141.9011  143.2296  161.8808 C.3     1  UNL1        0.1488
     14 C         141.3749  142.9077  163.2481 C.3     1  UNL1        0.0806
     15 C         142.6657  142.1580  163.3964 C.ar    1  UNL1       -0.0157
     16 C         142.6903  140.6673  163.2317 C.ar    1  UNL1       -0.0039
     17 C         143.9811  139.9176  163.3800 C.ar    1  UNL1       -0.0003
     18 C         145.2472  140.6586  163.6929 C.ar    1  UNL1       -0.0000
     19 C         145.2225  142.1493  163.8576 C.ar    1  UNL1       -0.0003
     20 C         143.9317  142.8991  163.7094 C.ar    1  UNL1       -0.0039
     21 C         138.8515  144.7419  165.3813 C.3     1  UNL1        0.0786
     22 C         139.1461  143.4945  164.6021 C.2     1  UNL1        0.1887
     23 O         138.5563  142.1843  165.0328 O.2     1  UNL1       -0.2900
     24 C         141.1186  142.4290  164.6465 C.3     1  UNL1        0.0130
     25 C         141.9657  142.9308  165.7781 C.3     1  UNL1        0.0181
     26 C         142.2900  142.0268  166.9303 C.3     1  UNL1        0.0722
     27 N         141.2559  141.7512  167.9814 N.3     1  UNL1       -0.2708
     28 C         141.1265  142.7904  169.0553 C.3     1  UNL1        0.0936
     29 C         140.1972  142.8079  170.2327 C.3     1  UNL1        0.1067
     30 N         139.1679  141.7905  170.6269 N.am    1  UNL1       -0.3029
     31 C         138.8136  140.5044  169.9411 C.2     1  UNL1        0.2239
     32 O         137.7283  139.6980  170.5906 O.2     1  UNL1       -0.2751
     33 C         139.4011  139.9179  168.6918 C.3     1  UNL1        0.1023
     34 C         140.4881  140.4728  167.8196 C.3     1  UNL1        0.0818
     35 H         138.6573  141.9938  171.4437 H       1  UNL1        0.1495
@<TRIPOS>BOND
     1    21    22    1
     2    22    23    2
     3    22     1    1
     4     1     2    2
     5     2     3    1
     6     3     4    1
     7     4     5   ar
     8     5     6   ar
     9     6     7    1
    10     6     8   ar
    11     8     9   ar
    12     9    10   ar
    13    10    11    1
    14    11    12    1
    15    13    12    1
    16    13    14    1
    17    14    24    1
    18    24    25    1
    19    25    26    1
    20    26    27    1
    21    27    28    1
    22    28    29    1
    23    29    30    1
    24    30    31   am
    25    31    32    2
    26    31    33    1
    27    33    34    1
    28    14    15    1
    29    15    16   ar
    30    16    17   ar
    31    17    18   ar
    32    18    19   ar
    33    19    20   ar
    34    14     1    1
    35    34    27    1
    36    20    15   ar
    37    13     3    1
    38    10     4   ar
    39    30    35    1
@<TRIPOS>MOLECULE
*****
 35 39 0 0 0
SMALL
GASTEIGER

@<TRIPOS>ATOM
      1 C         143.6564  141.6473  164.2969 C.2     1  UNL1        0.1157
      2 N         143.7818  142.1779  165.6943 N.2     1  UNL1       -0.1790
      3 N         142.7637  141.4815  166.5477 N.pl3   1  UNL1       -0.2060
      4 C         142.4263  141.5984  168.0046 C.ar    1  UNL1        0.1052
      5 C         143.1810  142.5594  168.8745 C.ar    1  UNL1        0.0490
      6 C         142.8436  142.6763  170.3313 C.ar    1  UNL1        0.1416
      7 F         143.5984  143.6374  171.2013 F       1  UNL1       -0.2041
      8 C         141.7515  141.8320  170.9183 C.ar    1  UNL1        0.0328
      9 C         140.9968  140.8709  170.0485 C.ar    1  UNL1        0.0405
     10 C         141.3342  140.7541  168.5916 C.ar    1  UNL1        0.1537
     11 O         140.5795  139.7930  167.7217 O.3     1  UNL1       -0.4723
     12 C         140.9169  139.6762  166.2648 C.3     1  UNL1        0.2277
     13 C         142.0090  140.5204  165.6778 C.3     1  UNL1        0.1488
     14 C         142.5607  140.6229  164.2867 C.3     1  UNL1        0.0806
     15 C         141.5355  139.5741  163.9720 C.ar    1  UNL1       -0.0157
     16 C         141.9608  138.1533  163.7472 C.ar    1  UNL1       -0.0039
     17 C         140.9356  137.1044  163.4324 C.ar    1  UNL1       -0.0003
     18 C         139.4853  137.4764  163.3424 C.ar    1  UNL1       -0.0000
     19 C         139.0600  138.8971  163.5672 C.ar    1  UNL1       -0.0003
     20 C         140.0852  139.9460  163.8820 C.ar    1  UNL1       -0.0039
     21 C         144.4332  143.4869  162.6348 C.3     1  UNL1        0.0786
     22 C         144.4817  142.0673  163.1168 C.2     1  UNL1        0.1887
     23 O         145.3555  141.0676  162.4188 O.2     1  UNL1       -0.2900
     24 C         142.8981  140.5060  162.8298 C.3     1  UNL1        0.0130
     25 C         141.8580  140.8095  161.7924 C.3     1  UNL1        0.0181
     26 C         141.4634  142.2306  161.5193 C.3     1  UNL1        0.0722
     27 N         140.4356  142.9024  162.3809 N.3     1  UNL1       -0.2708
     28 C         139.0118  142.7500  161.9344 C.3     1  UNL1        0.0936
     29 C         137.7682  143.2954  162.5718 C.3     1  UNL1        0.1067
     30 N         137.6415  144.1278  163.8131 N.am    1  UNL1       -0.3029
     31 C         138.7269  144.6205  164.7236 C.2     1  UNL1        0.2239
     32 O         138.2718  145.4396  165.8950 O.2     1  UNL1       -0.2751
     33 C         140.2071  144.4025  164.6178 C.3     1  UNL1        0.1023
     34 C         140.9676  143.6379  163.5751 C.3     1  UNL1        0.0818
     35 H         136.7246  144.3848  164.0633 H       1  UNL1        0.1495
@<TRIPOS>BOND
     1    21    22    1
     2    22    23    2
     3    22     1    1
     4     1     2    2
     5     2     3    1
     6     3     4    1
     7     4     5   ar
     8     5     6   ar
     9     6     7    1
    10     6     8   ar
    11     8     9   ar
    12     9    10   ar
    13    10    11    1
    14    11    12    1
    15    13    12    1
    16    13    14    1
    17    14    24    1
    18    24    25    1
    19    25    26    1
    20    26    27    1
    21    27    28    1
    22    28    29    1
    23    29    30    1
    24    30    31   am
    25    31    32    2
    26    31    33    1
    27    33    34    1
    28    14    15    1
    29    15    16   ar
    30    16    17   ar
    31    17    18   ar
    32    18    19   ar
    33    19    20   ar
    34    14     1    1
    35    34    27    1
    36    20    15   ar
    37    13     3    1
    38    10     4   ar
    39    30    35    1
@<TRIPOS>MOLECULE
*****
 35 39 0 0 0
SMALL
GASTEIGER

@<TRIPOS>ATOM
      1 C         139.5217  139.1461  162.7246 C.2     1  UNL1        0.1157
      2 N         139.3332  139.0059  161.2431 N.2     1  UNL1       -0.1790
      3 N         139.0542  140.3680  160.6804 N.pl3   1  UNL1       -0.2060
      4 C         138.7875  140.8410  159.2821 C.ar    1  UNL1        0.1052
      5 C         138.7715  139.8590  158.1484 C.ar    1  UNL1        0.0490
      6 C         138.5049  140.3320  156.7502 C.ar    1  UNL1        0.1416
      7 F         138.4889  139.3499  155.6164 F       1  UNL1       -0.2041
      8 C         138.2543  141.7871  156.4856 C.ar    1  UNL1        0.0328
      9 C         138.2703  142.7691  157.6193 C.ar    1  UNL1        0.0405
     10 C         138.5370  142.2961  159.0175 C.ar    1  UNL1        0.1537
     11 O         138.5530  143.2782  160.1513 O.3     1  UNL1       -0.4723
     12 C         138.8196  142.8051  161.5496 C.3     1  UNL1        0.2277
     13 C         139.0702  141.3501  161.8141 C.3     1  UNL1        0.1488
     14 C         139.3591  140.5949  163.0775 C.3     1  UNL1        0.0806
     15 C         139.2523  141.9448  163.7227 C.ar    1  UNL1       -0.0157
     16 C         140.4400  142.8605  163.7468 C.ar    1  UNL1       -0.0039
     17 C         140.3333  144.2105  164.3921 C.ar    1  UNL1       -0.0003
     18 C         139.0388  144.6446  165.0132 C.ar    1  UNL1       -0.0000
     19 C         137.8510  143.7288  164.9891 C.ar    1  UNL1       -0.0003
     20 C         137.9578  142.3789  164.3439 C.ar    1  UNL1       -0.0039
     21 C         141.1289  137.3041  163.6045 C.3     1  UNL1        0.0786
     22 C         139.8203  138.0328  163.6846 C.2     1  UNL1        0.1887
     23 O         138.8102  137.6484  164.7248 O.2     1  UNL1       -0.2900
     24 C         139.6257  140.1219  164.4758 C.3     1  UNL1        0.0130
     25 C         140.9361  140.4334  165.1359 C.3     1  UNL1        0.0181
     26 C         141.2315  139.8990  166.5060 C.3     1  UNL1        0.0722
     27 N         140.8380  140.6879  167.7197 N.3     1  UNL1       -0.2708
     28 C         140.5721  139.8859  168.9590 C.3     1  UNL1        0.0936
     29 C         140.1650  140.3725  170.3183 C.3     1  UNL1        0.1067
     30 N         139.9233  141.7811  170.7739 N.am    1  UNL1       -0.3029
     31 C         140.0290  143.0510  169.9827 C.2     1  UNL1        0.2239
     32 O         139.7204  144.3128  170.7328 O.2     1  UNL1       -0.2751
     33 C         140.4025  143.2261  168.5406 C.3     1  UNL1        0.1023
     34 C         140.7626  142.1744  167.5334 C.3     1  UNL1        0.0818
     35 H         139.6605  141.8859  171.7168 H       1  UNL1        0.1495
@<TRIPOS>BOND
     1    21    22    1
     2    22    23    2
     3    22     1    1
     4     1     2    2
     5     2     3    1
     6     3     4    1
     7     4     5   ar
     8     5     6   ar
     9     6     7    1
    10     6     8   ar
    11     8     9   ar
    12     9    10   ar
    13    10    11    1
    14    11    12    1
    15    13    12    1
    16    13    14    1
    17    14    24    1
    18    24    25    1
    19    25    26    1
    20    26    27    1
    21    27    28    1
    22    28    29    1
    23    29    30    1
    24    30    31   am
    25    31    32    2
    26    31    33    1
    27    33    34    1
    28    14    15    1
    29    15    16   ar
    30    16    17   ar
    31    17    18   ar
    32    18    19   ar
    33    19    20   ar
    34    14     1    1
    35    34    27    1
    36    20    15   ar
    37    13     3    1
    38    10     4   ar
    39    30    35    1
@<TRIPOS>MOLECULE
*****
 35 39 0 0 0
SMALL
GASTEIGER

@<TRIPOS>ATOM
      1 C         142.4120  139.5540  164.3132 C.2     1  UNL1        0.1157
      2 N         142.5109  138.7656  163.0409 N.2     1  UNL1       -0.1790
      3 N         142.5360  139.7344  161.8960 N.pl3   1  UNL1       -0.2060
      4 C         142.6240  139.5327  160.4122 C.ar    1  UNL1        0.1052
      5 C         142.7073  138.1456  159.8476 C.ar    1  UNL1        0.0490
      6 C         142.7953  137.9439  158.3638 C.ar    1  UNL1        0.1416
      7 F         142.8787  136.5567  157.7991 F       1  UNL1       -0.2041
      8 C         142.8000  139.1293  157.4447 C.ar    1  UNL1        0.0328
      9 C         142.7167  140.5165  158.0094 C.ar    1  UNL1        0.0405
     10 C         142.6287  140.7181  159.4932 C.ar    1  UNL1        0.1537
     11 O         142.5453  142.1053  160.0579 O.3     1  UNL1       -0.4723
     12 C         142.4573  142.3070  161.5416 C.3     1  UNL1        0.2277
     13 C         142.4527  141.1215  162.4607 C.3     1  UNL1        0.1488
     14 C         142.3760  141.0100  163.9546 C.3     1  UNL1        0.0806
     15 C         142.3217  142.5082  163.9062 C.ar    1  UNL1       -0.0157
     16 C         143.5827  143.2988  163.7200 C.ar    1  UNL1       -0.0039
     17 C         143.5284  144.7971  163.6716 C.ar    1  UNL1       -0.0003
     18 C         142.2130  145.5048  163.8095 C.ar    1  UNL1       -0.0000
     19 C         140.9519  144.7142  163.9958 C.ar    1  UNL1       -0.0003
     20 C         141.0062  143.2159  164.0441 C.ar    1  UNL1       -0.0039
     21 C         143.5765  138.3439  166.2955 C.3     1  UNL1        0.0786
     22 C         142.3585  138.9859  165.7005 C.2     1  UNL1        0.1887
     23 O         141.0869  139.0601  166.4927 O.2     1  UNL1       -0.2900
     24 C         142.2880  141.2117  165.4384 C.3     1  UNL1        0.0130
     25 C         143.3441  142.0029  166.1517 C.3     1  UNL1        0.0181
     26 C         143.1690  142.3529  167.5997 C.3     1  UNL1        0.0722
     27 N         142.2458  141.5429  168.4609 N.3     1  UNL1       -0.2708
     28 C         142.8808  140.4068  169.2065 C.3     1  UNL1        0.0936
     29 C         142.2364  139.4232  170.1379 C.3     1  UNL1        0.1067
     30 N         140.7980  139.3330  170.5538 N.am    1  UNL1       -0.3029
     31 C         139.6487  140.2040  170.1409 C.2     1  UNL1        0.2239
     32 O         138.3182  139.8521  170.7376 O.2     1  UNL1       -0.2751
     33 C         139.6539  141.3803  169.2102 C.3     1  UNL1        0.1023
     34 C         140.8098  141.9762  168.4625 C.3     1  UNL1        0.0818
     35 H         140.5793  138.6060  171.1806 H       1  UNL1        0.1495
@<TRIPOS>BOND
     1    21    22    1
     2    22    23    2
     3    22     1    1
     4     1     2    2
     5     2     3    1
     6     3     4    1
     7     4     5   ar
     8     5     6   ar
     9     6     7    1
    10     6     8   ar
    11     8     9   ar
    12     9    10   ar
    13    10    11    1
    14    11    12    1
    15    13    12    1
    16    13    14    1
    17    14    24    1
    18    24    25    1
    19    25    26    1
    20    26    27    1
    21    27    28    1
    22    28    29    1
    23    29    30    1
    24    30    31   am
    25    31    32    2
    26    31    33    1
    27    33    34    1
    28    14    15    1
    29    15    16   ar
    30    16    17   ar
    31    17    18   ar
    32    18    19   ar
    33    19    20   ar
    34    14     1    1
    35    34    27    1
    36    20    15   ar
    37    13     3    1
    38    10     4   ar
    39    30    35    1
