@<TRIPOS>MOLECULE
*****
 29 33 0 0 0
SMALL
GASTEIGER

@<TRIPOS>ATOM
      1 N         140.2594  143.5692  162.5830 N.ar    1  UNL1       -0.2763
      2 C         141.5527  143.0419  163.1302 C.ar    1  UNL1        0.0857
      3 C         141.6617  142.6829  164.5825 C.ar    1  UNL1        0.0561
      4 C         140.4775  142.8511  165.4877 C.ar    1  UNL1        0.1453
      5 C         139.1842  143.3784  164.9405 C.ar    1  UNL1        0.0980
      6 C         139.0752  143.7374  163.4881 C.ar    1  UNL1        0.2676
      7 O         137.7819  144.2647  162.9409 O.2     1  UNL1       -0.2665
      8 C         139.7658  144.6993  156.7363 C.2     1  UNL1        0.0005
      9 C         139.4678  143.3108  156.2534 C.2     1  UNL1        0.0943
     10 N         139.4502  142.3996  157.4448 N.2     1  UNL1       -0.2481
     11 C         139.7373  143.2249  158.6640 C.2     1  UNL1        0.0646
     12 C         139.8463  142.8659  160.1162 C.3     1  UNL1        0.0899
     13 C         140.1504  143.9282  161.1306 C.2     1  UNL1        0.0502
     14 C         140.3454  145.3495  160.6928 C.2     1  UNL1        0.0136
     15 C         140.2364  145.7086  159.2405 C.2     1  UNL1        0.0021
     16 C         139.9324  144.6463  158.2261 C.2     1  UNL1        0.0116
     17 C         140.1475  148.8863  153.8120 C.3     1  UNL1        0.0897
     18 N         140.0357  147.6600  154.6685 N.3     1  UNL1       -0.2708
     19 C         140.7060  146.3183  154.6926 C.3     1  UNL1        0.0779
     20 C         139.8776  145.9257  155.8798 C.3     1  UNL1        0.0558
     21 C         139.2073  147.2674  155.8558 C.3     1  UNL1        0.0779
     22 O         140.5865  142.4921  166.9399 O.3     1  UNL1       -0.4704
     23 C         140.8848  141.0783  167.3427 C.3     1  UNL1        0.2320
     24 C         140.2038  139.9396  166.6429 C.ar    1  UNL1        0.0212
     25 C         138.7939  139.5743  167.0016 C.ar    1  UNL1       -0.0007
     26 C         138.1130  138.4355  166.3018 C.ar    1  UNL1       -0.0002
     27 C         138.8420  137.6621  165.2434 C.ar    1  UNL1       -0.0000
     28 C         140.2519  138.0274  164.8847 C.ar    1  UNL1       -0.0002
     29 C         140.9329  139.1661  165.5844 C.ar    1  UNL1       -0.0007
@<TRIPOS>BOND
     1    17    18    1
     2    18    19    1
     3    19    20    1
     4    20     8    1
     5     8     9    2
     6     9    10    1
     7    10    11    2
     8    11    12    1
     9    12    13    1
    10    13     1    1
    11     1     2   ar
    12     2     3   ar
    13     3     4   ar
    14     4    22    1
    15    22    23    1
    16    23    24    1
    17    24    25   ar
    18    25    26   ar
    19    26    27   ar
    20    27    28   ar
    21    28    29   ar
    22     4     5   ar
    23     5     6   ar
    24     6     7    2
    25    13    14    2
    26    14    15    1
    27    15    16    2
    28    20    21    1
    29    21    18    1
    30    16     8    1
    31    16    11    1
    32     6     1   ar
    33    29    24   ar
@<TRIPOS>MOLECULE
*****
 29 33 0 0 0
SMALL
GASTEIGER

@<TRIPOS>ATOM
      1 N         141.1104  138.6813  160.8716 N.ar    1  UNL1       -0.2763
      2 C         140.1253  138.9145  159.7648 C.ar    1  UNL1        0.0857
      3 C         140.4711  138.5241  158.3584 C.ar    1  UNL1        0.0561
      4 C         141.8020  137.9005  158.0588 C.ar    1  UNL1        0.1453
      5 C         142.7872  137.6673  159.1657 C.ar    1  UNL1        0.0980
      6 C         142.4413  138.0577  160.5721 C.ar    1  UNL1        0.2676
      7 O         143.4264  137.8246  161.6790 O.2     1  UNL1       -0.2665
      8 C         139.5335  139.9970  166.4830 C.2     1  UNL1        0.0005
      9 C         138.5348  138.9008  166.7091 C.2     1  UNL1        0.0943
     10 N         138.4571  138.0791  165.4566 N.2     1  UNL1       -0.2481
     11 C         139.4077  138.6674  164.4564 C.2     1  UNL1        0.0646
     12 C         139.7535  138.2769  163.0501 C.3     1  UNL1        0.0899
     13 C         140.7646  139.0718  162.2781 C.2     1  UNL1        0.0502
     14 C         141.4298  140.2571  162.9125 C.2     1  UNL1        0.0136
     15 C         141.0840  140.6476  164.3188 C.2     1  UNL1        0.0021
     16 C         140.0730  139.8528  165.0908 C.2     1  UNL1        0.0116
     17 C         140.8672  143.5997  169.8698 C.3     1  UNL1        0.0897
     18 N         140.4765  142.5445  168.8778 N.3     1  UNL1       -0.2708
     19 C         139.9525  141.1422  168.9720 C.3     1  UNL1        0.0779
     20 C         139.9241  141.0522  167.4750 C.3     1  UNL1        0.0558
     21 C         140.4481  142.4546  167.3807 C.3     1  UNL1        0.0779
     22 O         142.1478  137.5100  156.6524 O.3     1  UNL1       -0.4704
     23 C         143.2500  136.5252  156.3969 C.3     1  UNL1        0.2320
     24 C         142.9429  135.0590  156.3205 C.ar    1  UNL1        0.0212
     25 C         141.8072  134.5740  155.4691 C.ar    1  UNL1       -0.0007
     26 C         141.5001  133.1076  155.3928 C.ar    1  UNL1       -0.0002
     27 C         142.3288  132.1265  156.1677 C.ar    1  UNL1       -0.0000
     28 C         143.4645  132.6116  157.0191 C.ar    1  UNL1       -0.0002
     29 C         143.7716  134.0778  157.0955 C.ar    1  UNL1       -0.0007
@<TRIPOS>BOND
     1    17    18    1
     2    18    19    1
     3    19    20    1
     4    20     8    1
     5     8     9    2
     6     9    10    1
     7    10    11    2
     8    11    12    1
     9    12    13    1
    10    13     1    1
    11     1     2   ar
    12     2     3   ar
    13     3     4   ar
    14     4    22    1
    15    22    23    1
    16    23    24    1
    17    24    25   ar
    18    25    26   ar
    19    26    27   ar
    20    27    28   ar
    21    28    29   ar
    22     4     5   ar
    23     5     6   ar
    24     6     7    2
    25    13    14    2
    26    14    15    1
    27    15    16    2
    28    20    21    1
    29    21    18    1
    30    16     8    1
    31    16    11    1
    32     6     1   ar
    33    29    24   ar
@<TRIPOS>MOLECULE
*****
 29 33 0 0 0
SMALL
GASTEIGER

@<TRIPOS>ATOM
      1 N         141.7321  138.9247  161.6439 N.ar    1  UNL1       -0.2763
      2 C         142.5007  137.6709  161.3486 C.ar    1  UNL1        0.0857
      3 C         143.0419  137.4300  159.9706 C.ar    1  UNL1        0.0561
      4 C         142.8146  138.4429  158.8878 C.ar    1  UNL1        0.1453
      5 C         142.0460  139.6968  159.1831 C.ar    1  UNL1        0.0980
      6 C         141.5048  139.9376  160.5612 C.ar    1  UNL1        0.2676
      7 O         140.7362  141.1915  160.8565 O.2     1  UNL1       -0.2665
      8 C         139.3384  139.6947  167.0644 C.2     1  UNL1        0.0005
      9 C         138.1299  138.8190  166.9136 C.2     1  UNL1        0.0943
     10 N         138.1532  138.2305  165.5341 N.2     1  UNL1       -0.2481
     11 C         139.3761  138.7425  164.8323 C.2     1  UNL1        0.0646
     12 C         139.9173  138.5016  163.4543 C.3     1  UNL1        0.0899
     13 C         141.1909  139.1656  163.0220 C.2     1  UNL1        0.0502
     14 C         141.9234  140.0706  163.9679 C.2     1  UNL1        0.0136
     15 C         141.3822  140.3115  165.3459 C.2     1  UNL1        0.0021
     16 C         140.1086  139.6474  165.7781 C.2     1  UNL1        0.0116
     17 C         140.6113  142.3754  171.2384 C.3     1  UNL1        0.0897
     18 N         140.2385  141.5902  170.0159 N.3     1  UNL1       -0.2708
     19 C         140.5191  141.7165  168.5478 C.3     1  UNL1        0.0779
     20 C         139.7112  140.4799  168.2869 C.3     1  UNL1        0.0558
     21 C         139.4306  140.3536  169.7551 C.3     1  UNL1        0.0779
     22 O         143.3558  138.2020  157.5098 O.3     1  UNL1       -0.4704
     23 C         142.4749  137.6073  156.4514 C.3     1  UNL1        0.2320
     24 C         142.3840  136.1176  156.3011 C.ar    1  UNL1        0.0212
     25 C         141.3932  135.5190  155.3472 C.ar    1  UNL1       -0.0007
     26 C         141.3024  134.0293  155.1970 C.ar    1  UNL1       -0.0002
     27 C         142.2024  133.1382  156.0007 C.ar    1  UNL1       -0.0000
     28 C         143.1932  133.7368  156.9546 C.ar    1  UNL1       -0.0002
     29 C         143.2840  135.2265  157.1049 C.ar    1  UNL1       -0.0007
@<TRIPOS>BOND
     1    17    18    1
     2    18    19    1
     3    19    20    1
     4    20     8    1
     5     8     9    2
     6     9    10    1
     7    10    11    2
     8    11    12    1
     9    12    13    1
    10    13     1    1
    11     1     2   ar
    12     2     3   ar
    13     3     4   ar
    14     4    22    1
    15    22    23    1
    16    23    24    1
    17    24    25   ar
    18    25    26   ar
    19    26    27   ar
    20    27    28   ar
    21    28    29   ar
    22     4     5   ar
    23     5     6   ar
    24     6     7    2
    25    13    14    2
    26    14    15    1
    27    15    16    2
    28    20    21    1
    29    21    18    1
    30    16     8    1
    31    16    11    1
    32     6     1   ar
    33    29    24   ar
@<TRIPOS>MOLECULE
*****
 29 33 0 0 0
SMALL
GASTEIGER

@<TRIPOS>ATOM
      1 N         141.0675  143.1636  162.8392 N.ar    1  UNL1       -0.2763
      2 C         140.0902  143.4997  163.9264 C.ar    1  UNL1        0.0857
      3 C         140.3812  143.1064  165.3444 C.ar    1  UNL1        0.0561
      4 C         141.6496  142.3771  165.6752 C.ar    1  UNL1        0.1453
      5 C         142.6269  142.0410  164.5880 C.ar    1  UNL1        0.0980
      6 C         142.3358  142.4343  163.1700 C.ar    1  UNL1        0.2676
      7 O         143.3131  142.0982  162.0828 O.2     1  UNL1       -0.2665
      8 C         140.1555  144.9196  157.2010 C.2     1  UNL1        0.0005
      9 C         141.3017  145.8776  157.0655 C.2     1  UNL1        0.0943
     10 N         142.0489  145.8933  158.3660 N.2     1  UNL1       -0.2481
     11 C         141.3644  144.9451  159.3054 C.2     1  UNL1        0.0646
     12 C         141.6555  144.5518  160.7233 C.3     1  UNL1        0.0899
     13 C         140.7764  143.5569  161.4212 C.2     1  UNL1        0.0502
     14 C         139.6062  142.9551  160.7012 C.2     1  UNL1        0.0136
     15 C         139.3151  143.3483  159.2833 C.2     1  UNL1        0.0021
     16 C         140.1942  144.3433  158.5854 C.2     1  UNL1        0.0116
     17 C         136.7137  143.8111  153.5742 C.3     1  UNL1        0.0897
     18 N         137.7218  144.1357  154.6365 N.3     1  UNL1       -0.2708
     19 C         138.2472  145.4001  155.2491 C.3     1  UNL1        0.0779
     20 C         139.1474  144.5950  156.1388 C.3     1  UNL1        0.0558
     21 C         138.6219  143.3306  155.5261 C.3     1  UNL1        0.0779
     22 O         141.9406  141.9839  167.0931 O.3     1  UNL1       -0.4704
     23 C         141.4907  140.6490  167.6087 C.3     1  UNL1        0.2320
     24 C         140.6154  139.7740  166.7614 C.ar    1  UNL1        0.0212
     25 C         141.2286  138.8731  165.7306 C.ar    1  UNL1       -0.0007
     26 C         140.3531  137.9980  164.8833 C.ar    1  UNL1       -0.0002
     27 C         138.8647  138.0238  165.0667 C.ar    1  UNL1       -0.0000
     28 C         138.2515  138.9247  166.0974 C.ar    1  UNL1       -0.0002
     29 C         139.1268  139.7998  166.9447 C.ar    1  UNL1       -0.0007
@<TRIPOS>BOND
     1    17    18    1
     2    18    19    1
     3    19    20    1
     4    20     8    1
     5     8     9    2
     6     9    10    1
     7    10    11    2
     8    11    12    1
     9    12    13    1
    10    13     1    1
    11     1     2   ar
    12     2     3   ar
    13     3     4   ar
    14     4    22    1
    15    22    23    1
    16    23    24    1
    17    24    25   ar
    18    25    26   ar
    19    26    27   ar
    20    27    28   ar
    21    28    29   ar
    22     4     5   ar
    23     5     6   ar
    24     6     7    2
    25    13    14    2
    26    14    15    1
    27    15    16    2
    28    20    21    1
    29    21    18    1
    30    16     8    1
    31    16    11    1
    32     6     1   ar
    33    29    24   ar
@<TRIPOS>MOLECULE
*****
 29 33 0 0 0
SMALL
GASTEIGER

@<TRIPOS>ATOM
      1 N         141.9795  141.5529  164.6347 N.ar    1  UNL1       -0.2763
      2 C         141.1529  140.3315  164.9083 C.ar    1  UNL1        0.0857
      3 C         141.4840  139.4473  166.0738 C.ar    1  UNL1        0.0561
      4 C         142.6419  139.7845  166.9658 C.ar    1  UNL1        0.1453
      5 C         143.4686  141.0059  166.6923 C.ar    1  UNL1        0.0980
      6 C         143.1373  141.8902  165.5267 C.ar    1  UNL1        0.2676
      7 O         143.9640  143.1116  165.2532 O.2     1  UNL1       -0.2665
      8 C         140.5023  145.2600  160.1872 C.2     1  UNL1        0.0005
      9 C         139.7040  146.2595  160.9705 C.2     1  UNL1        0.0943
     10 N         139.6942  145.8228  162.4054 N.2     1  UNL1       -0.2481
     11 C         140.4865  144.5533  162.5090 C.2     1  UNL1        0.0646
     12 C         140.8177  143.6692  163.6746 C.3     1  UNL1        0.0899
     13 C         141.6483  142.4372  163.4691 C.2     1  UNL1        0.0502
     14 C         142.1477  142.0893  162.0982 C.2     1  UNL1        0.0136
     15 C         141.8165  142.9735  160.9326 C.2     1  UNL1        0.0021
     16 C         140.9859  144.2054  161.1380 C.2     1  UNL1        0.0116
     17 C         141.4164  145.4195  155.1506 C.3     1  UNL1        0.0897
     18 N         141.1487  145.3728  156.6258 N.3     1  UNL1       -0.2708
     19 C         140.0332  144.8565  157.4855 C.3     1  UNL1        0.0779
     20 C         140.7700  145.3067  158.7120 C.3     1  UNL1        0.0558
     21 C         141.8856  145.8229  157.8523 C.3     1  UNL1        0.0779
     22 O         142.9731  138.9003  168.1313 O.3     1  UNL1       -0.4704
     23 C         142.4300  139.2191  169.4927 C.3     1  UNL1        0.2320
     24 C         141.7270  140.5221  169.7336 C.ar    1  UNL1        0.0212
     25 C         140.2283  140.5693  169.7745 C.ar    1  UNL1       -0.0007
     26 C         139.5253  141.8724  170.0153 C.ar    1  UNL1       -0.0002
     27 C         140.3210  143.1281  170.2152 C.ar    1  UNL1       -0.0000
     28 C         141.8197  143.0808  170.1743 C.ar    1  UNL1       -0.0002
     29 C         142.5227  141.7779  169.9335 C.ar    1  UNL1       -0.0007
@<TRIPOS>BOND
     1    17    18    1
     2    18    19    1
     3    19    20    1
     4    20     8    1
     5     8     9    2
     6     9    10    1
     7    10    11    2
     8    11    12    1
     9    12    13    1
    10    13     1    1
    11     1     2   ar
    12     2     3   ar
    13     3     4   ar
    14     4    22    1
    15    22    23    1
    16    23    24    1
    17    24    25   ar
    18    25    26   ar
    19    26    27   ar
    20    27    28   ar
    21    28    29   ar
    22     4     5   ar
    23     5     6   ar
    24     6     7    2
    25    13    14    2
    26    14    15    1
    27    15    16    2
    28    20    21    1
    29    21    18    1
    30    16     8    1
    31    16    11    1
    32     6     1   ar
    33    29    24   ar
@<TRIPOS>MOLECULE
*****
 29 33 0 0 0
SMALL
GASTEIGER

@<TRIPOS>ATOM
      1 N         140.9283  143.4591  161.7363 N.ar    1  UNL1       -0.2763
      2 C         142.1400  143.0941  160.9310 C.ar    1  UNL1        0.0857
      3 C         142.5114  143.9052  159.7251 C.ar    1  UNL1        0.0561
      4 C         141.6709  145.0813  159.3244 C.ar    1  UNL1        0.1453
      5 C         140.4592  145.4463  160.1297 C.ar    1  UNL1        0.0980
      6 C         140.0879  144.6352  161.3356 C.ar    1  UNL1        0.2676
      7 O         138.8761  145.0002  162.1409 O.2     1  UNL1       -0.2665
      8 C         139.2655  140.0548  166.3569 C.2     1  UNL1        0.0005
      9 C         138.3383  139.1202  165.6379 C.2     1  UNL1        0.0943
     10 N         138.3143  139.5137  164.1907 N.2     1  UNL1       -0.2481
     11 C         139.2265  140.6914  164.0152 C.2     1  UNL1        0.0646
     12 C         139.5978  141.5025  162.8093 C.3     1  UNL1        0.0899
     13 C         140.5569  142.6480  162.9422 C.2     1  UNL1        0.0502
     14 C         141.1448  142.9824  164.2811 C.2     1  UNL1        0.0136
     15 C         140.7736  142.1714  165.4870 C.2     1  UNL1        0.0021
     16 C         139.8144  141.0258  165.3540 C.2     1  UNL1        0.0116
     17 C         140.3642  139.9490  171.3579 C.3     1  UNL1        0.0897
     18 N         140.0424  139.9800  169.8932 N.3     1  UNL1       -0.2708
     19 C         138.7794  140.0309  169.0855 C.3     1  UNL1        0.0779
     20 C         139.5872  140.0238  167.8217 C.3     1  UNL1        0.0558
     21 C         140.8503  139.9729  168.6294 C.3     1  UNL1        0.0779
     22 O         142.0423  145.8924  158.1185 O.3     1  UNL1       -0.4704
     23 C         141.8051  145.3430  156.7431 C.3     1  UNL1        0.2320
     24 C         140.4229  145.3509  156.1604 C.ar    1  UNL1        0.0212
     25 C         139.8316  146.6314  155.6496 C.ar    1  UNL1       -0.0007
     26 C         138.4494  146.6392  155.0669 C.ar    1  UNL1       -0.0002
     27 C         137.6585  145.3667  154.9950 C.ar    1  UNL1       -0.0000
     28 C         138.2498  144.0863  155.5058 C.ar    1  UNL1       -0.0002
     29 C         139.6320  144.0784  156.0884 C.ar    1  UNL1       -0.0007
@<TRIPOS>BOND
     1    17    18    1
     2    18    19    1
     3    19    20    1
     4    20     8    1
     5     8     9    2
     6     9    10    1
     7    10    11    2
     8    11    12    1
     9    12    13    1
    10    13     1    1
    11     1     2   ar
    12     2     3   ar
    13     3     4   ar
    14     4    22    1
    15    22    23    1
    16    23    24    1
    17    24    25   ar
    18    25    26   ar
    19    26    27   ar
    20    27    28   ar
    21    28    29   ar
    22     4     5   ar
    23     5     6   ar
    24     6     7    2
    25    13    14    2
    26    14    15    1
    27    15    16    2
    28    20    21    1
    29    21    18    1
    30    16     8    1
    31    16    11    1
    32     6     1   ar
    33    29    24   ar
@<TRIPOS>MOLECULE
*****
 29 33 0 0 0
SMALL
GASTEIGER

@<TRIPOS>ATOM
      1 N         141.2992  138.4713  160.5675 N.ar    1  UNL1       -0.2763
      2 C         139.8064  138.5862  160.4762 C.ar    1  UNL1        0.0857
      3 C         138.9505  138.1823  161.6399 C.ar    1  UNL1        0.0561
      4 C         139.5874  137.6636  162.8951 C.ar    1  UNL1        0.1453
      5 C         141.0802  137.5487  162.9864 C.ar    1  UNL1        0.0980
      6 C         141.9361  137.9526  161.8226 C.ar    1  UNL1        0.2676
      7 O         143.4289  137.8377  161.9139 O.2     1  UNL1       -0.2665
      8 C         144.6734  139.7925  155.8163 C.2     1  UNL1        0.0005
      9 C         144.6170  138.4686  155.1132 C.2     1  UNL1        0.0943
     10 N         143.7755  137.5410  155.9386 N.2     1  UNL1       -0.2481
     11 C         143.3118  138.2915  157.1518 C.2     1  UNL1        0.0646
     12 C         142.4559  137.8876  158.3155 C.3     1  UNL1        0.0899
     13 C         142.1551  138.8752  159.4037 C.2     1  UNL1        0.0502
     14 C         142.7101  140.2667  159.3281 C.2     1  UNL1        0.0136
     15 C         143.5659  140.6706  158.1643 C.2     1  UNL1        0.0021
     16 C         143.8668  139.6830  157.0762 C.2     1  UNL1        0.0116
     17 C         147.1802  143.9553  154.1992 C.3     1  UNL1        0.0897
     18 N         146.4460  142.7361  154.6729 N.3     1  UNL1       -0.2708
     19 C         145.4509  141.7936  154.0633 C.3     1  UNL1        0.0779
     20 C         145.4076  141.0117  155.3426 C.3     1  UNL1        0.0558
     21 C         146.4027  141.9542  155.9523 C.3     1  UNL1        0.0779
     22 O         138.7315  137.2597  164.0588 O.3     1  UNL1       -0.4704
     23 C         138.8491  137.9882  165.3648 C.3     1  UNL1        0.2320
     24 C         139.0572  139.4736  165.3789 C.ar    1  UNL1        0.0212
     25 C         138.0667  140.3762  164.7050 C.ar    1  UNL1       -0.0007
     26 C         138.2749  141.8616  164.7192 C.ar    1  UNL1       -0.0002
     27 C         139.4735  142.4444  165.4073 C.ar    1  UNL1       -0.0000
     28 C         140.4641  141.5418  166.0813 C.ar    1  UNL1       -0.0002
     29 C         140.2559  140.0564  166.0671 C.ar    1  UNL1       -0.0007
@<TRIPOS>BOND
     1    17    18    1
     2    18    19    1
     3    19    20    1
     4    20     8    1
     5     8     9    2
     6     9    10    1
     7    10    11    2
     8    11    12    1
     9    12    13    1
    10    13     1    1
    11     1     2   ar
    12     2     3   ar
    13     3     4   ar
    14     4    22    1
    15    22    23    1
    16    23    24    1
    17    24    25   ar
    18    25    26   ar
    19    26    27   ar
    20    27    28   ar
    21    28    29   ar
    22     4     5   ar
    23     5     6   ar
    24     6     7    2
    25    13    14    2
    26    14    15    1
    27    15    16    2
    28    20    21    1
    29    21    18    1
    30    16     8    1
    31    16    11    1
    32     6     1   ar
    33    29    24   ar
@<TRIPOS>MOLECULE
*****
 29 33 0 0 0
SMALL
GASTEIGER

@<TRIPOS>ATOM
      1 N         138.8561  140.4618  162.0149 N.ar    1  UNL1       -0.2763
      2 C         139.8953  139.4004  162.2237 C.ar    1  UNL1        0.0857
      3 C         140.0195  138.7244  163.5570 C.ar    1  UNL1        0.0561
      4 C         139.1046  139.1098  164.6815 C.ar    1  UNL1        0.1453
      5 C         138.0654  140.1712  164.4727 C.ar    1  UNL1        0.0980
      6 C         137.9412  140.8472  163.1393 C.ar    1  UNL1        0.2676
      7 O         136.9020  141.9085  162.9305 O.2     1  UNL1       -0.2665
      8 C         138.2007  142.9070  156.6023 C.2     1  UNL1        0.0005
      9 C         137.4169  141.8110  155.9432 C.2     1  UNL1        0.0943
     10 N         137.2151  140.7163  156.9487 N.2     1  UNL1       -0.2481
     11 C         137.8742  141.1358  158.2292 C.2     1  UNL1        0.0646
     12 C         137.9985  140.4598  159.5624 C.3     1  UNL1        0.0899
     13 C         138.7318  141.1378  160.6816 C.2     1  UNL1        0.0502
     14 C         139.3409  142.4917  160.4675 C.2     1  UNL1        0.0136
     15 C         139.2167  143.1677  159.1343 C.2     1  UNL1        0.0021
     16 C         138.4834  142.4897  158.0151 C.2     1  UNL1        0.0116
     17 C         139.6564  147.3022  154.4134 C.3     1  UNL1        0.0897
     18 N         139.2300  146.0149  155.0545 N.3     1  UNL1       -0.2708
     19 C         137.9553  145.2259  155.1042 C.3     1  UNL1        0.0779
     20 C         138.6270  144.1943  155.9612 C.3     1  UNL1        0.0558
     21 C         139.9019  144.9833  155.9115 C.3     1  UNL1        0.0779
     22 O         139.2289  138.4338  166.0147 O.3     1  UNL1       -0.4704
     23 C         138.6348  139.0699  167.2364 C.3     1  UNL1        0.2320
     24 C         139.3954  140.1312  167.9746 C.ar    1  UNL1        0.0212
     25 C         140.4467  140.9317  167.2645 C.ar    1  UNL1       -0.0007
     26 C         141.2073  141.9931  168.0028 C.ar    1  UNL1       -0.0002
     27 C         140.9167  142.2539  169.4510 C.ar    1  UNL1       -0.0000
     28 C         139.8655  141.4535  170.1611 C.ar    1  UNL1       -0.0002
     29 C         139.1049  140.3922  169.4229 C.ar    1  UNL1       -0.0007
@<TRIPOS>BOND
     1    17    18    1
     2    18    19    1
     3    19    20    1
     4    20     8    1
     5     8     9    2
     6     9    10    1
     7    10    11    2
     8    11    12    1
     9    12    13    1
    10    13     1    1
    11     1     2   ar
    12     2     3   ar
    13     3     4   ar
    14     4    22    1
    15    22    23    1
    16    23    24    1
    17    24    25   ar
    18    25    26   ar
    19    26    27   ar
    20    27    28   ar
    21    28    29   ar
    22     4     5   ar
    23     5     6   ar
    24     6     7    2
    25    13    14    2
    26    14    15    1
    27    15    16    2
    28    20    21    1
    29    21    18    1
    30    16     8    1
    31    16    11    1
    32     6     1   ar
    33    29    24   ar
@<TRIPOS>MOLECULE
*****
 29 33 0 0 0
SMALL
GASTEIGER

@<TRIPOS>ATOM
      1 N         142.1929  142.9009  161.6291 N.ar    1  UNL1       -0.2763
      2 C         141.0062  142.0232  161.8961 C.ar    1  UNL1        0.0857
      3 C         140.2656  142.1380  163.1955 C.ar    1  UNL1        0.0561
      4 C         140.7119  143.1305  164.2279 C.ar    1  UNL1        0.1453
      5 C         141.8986  144.0082  163.9609 C.ar    1  UNL1        0.0980
      6 C         142.6392  143.8934  162.6615 C.ar    1  UNL1        0.2676
      7 O         143.8259  144.7711  162.3945 O.2     1  UNL1       -0.2665
      8 C         144.8741  142.4980  156.3043 C.2     1  UNL1        0.0005
      9 C         143.6850  142.7439  155.4238 C.2     1  UNL1        0.0943
     10 N         142.4904  142.9543  156.3063 N.2     1  UNL1       -0.2481
     11 C         142.9414  142.8384  157.7322 C.2     1  UNL1        0.0646
     12 C         142.2008  142.9533  159.0316 C.3     1  UNL1        0.0899
     13 C         142.9335  142.7861  160.3297 C.2     1  UNL1        0.0502
     14 C         144.4067  142.5040  160.3285 C.2     1  UNL1        0.0136
     15 C         145.1473  142.3892  159.0291 C.2     1  UNL1        0.0021
     16 C         144.4146  142.5564  157.7310 C.2     1  UNL1        0.0116
     17 C         149.6627  141.6140  154.7181 C.3     1  UNL1        0.0897
     18 N         148.2602  141.8729  155.1826 N.3     1  UNL1       -0.2708
     19 C         147.6436  142.4742  156.4108 C.3     1  UNL1        0.0779
     20 C         146.2767  142.2391  155.8398 C.3     1  UNL1        0.0558
     21 C         146.8932  141.6377  154.6115 C.3     1  UNL1        0.0779
     22 O         139.9713  143.2453  165.5273 O.3     1  UNL1       -0.4704
     23 C         140.1432  142.1946  166.5839 C.3     1  UNL1        0.2320
     24 C         140.9991  142.4710  167.7843 C.ar    1  UNL1        0.0212
     25 C         140.4272  143.2063  168.9600 C.ar    1  UNL1       -0.0007
     26 C         141.2832  143.4827  170.1604 C.ar    1  UNL1       -0.0002
     27 C         142.7110  143.0238  170.1851 C.ar    1  UNL1       -0.0000
     28 C         143.2829  142.2885  169.0094 C.ar    1  UNL1       -0.0002
     29 C         142.4270  142.0121  167.8090 C.ar    1  UNL1       -0.0007
@<TRIPOS>BOND
     1    17    18    1
     2    18    19    1
     3    19    20    1
     4    20     8    1
     5     8     9    2
     6     9    10    1
     7    10    11    2
     8    11    12    1
     9    12    13    1
    10    13     1    1
    11     1     2   ar
    12     2     3   ar
    13     3     4   ar
    14     4    22    1
    15    22    23    1
    16    23    24    1
    17    24    25   ar
    18    25    26   ar
    19    26    27   ar
    20    27    28   ar
    21    28    29   ar
    22     4     5   ar
    23     5     6   ar
    24     6     7    2
    25    13    14    2
    26    14    15    1
    27    15    16    2
    28    20    21    1
    29    21    18    1
    30    16     8    1
    31    16    11    1
    32     6     1   ar
    33    29    24   ar
