@<TRIPOS>MOLECULE
*****
 36 39 0 0 0
SMALL
GASTEIGER

@<TRIPOS>ATOM
      1 C         141.0096  144.0205  160.9623 C.ar    1  UNL1        0.0185
      2 C         141.8040  142.7953  161.3052 C.ar    1  UNL1        0.0017
      3 C         141.9468  142.3704  162.7366 C.ar    1  UNL1        0.0046
      4 C         141.2952  143.1707  163.8252 C.ar    1  UNL1        0.0537
      5 C         140.5008  144.3959  163.4823 C.ar    1  UNL1        0.0046
      6 C         140.3579  144.8208  162.0509 C.ar    1  UNL1        0.0017
      7 C         140.5810  145.2954  156.6680 C.ar    1  UNL1        0.0139
      8 C         141.6799  145.8671  157.5140 C.ar    1  UNL1        0.0959
      9 N         141.8227  145.4422  158.9454 N.ar    1  UNL1       -0.2433
     10 C         140.8667  144.4455  159.5309 C.ar    1  UNL1        0.0918
     11 C         139.7679  143.8738  158.6849 C.ar    1  UNL1        0.0750
     12 CL        138.8119  142.8771  159.2703 Cl      1  UNL1       -0.0807
     13 C         139.6250  144.2988  157.2534 C.ar    1  UNL1        0.0115
     14 C         140.4382  145.7204  155.2366 C.3     1  UNL1        0.1008
     15 N         139.3646  149.9776  154.2498 N.3     1  UNL1       -0.2716
     16 C         138.8111  149.3316  155.4852 C.3     1  UNL1        0.0896
     17 C         139.1689  147.9125  155.8141 C.3     1  UNL1        0.0899
     18 N         140.0803  147.1395  154.9077 N.3     1  UNL1       -0.2665
     19 C         140.6338  147.7855  153.6723 C.3     1  UNL1        0.0899
     20 C         140.2760  149.2046  153.3433 C.3     1  UNL1        0.0896
     21 C         138.4478  152.2949  154.9842 C.3     1  UNL1        0.0173
     22 C         139.0067  151.3967  153.9209 C.3     1  UNL1        0.0577
     23 C         139.2078  151.9175  152.5287 C.3     1  UNL1        0.0173
     24 C         141.4381  142.7457  165.2567 C.2     1  UNL1        0.2495
     25 O         140.3954  143.1351  166.2622 O.2     1  UNL1       -0.2698
     26 N         142.6236  141.9314  165.6825 N.am    1  UNL1       -0.2794
     27 H         143.3079  141.6758  165.0225 H       1  UNL1        0.1552
     28 C         142.7664  141.5064  167.1139 C.ar    1  UNL1        0.0636
     29 C         143.3279  142.4597  168.1268 C.ar    1  UNL1        0.0159
     30 C         143.4707  142.0348  169.5583 C.ar    1  UNL1        0.0014
     31 C         143.0520  140.6566  169.9768 C.ar    1  UNL1        0.0013
     32 C         142.4905  139.7033  168.9640 C.ar    1  UNL1        0.0153
     33 C         142.3477  140.1282  167.5325 C.ar    1  UNL1        0.0552
     34 N         141.7861  139.1749  166.5197 N.pl3   1  UNL1       -0.3560
     35 H         141.5113  138.2704  166.7944 H       1  UNL1        0.1424
     36 H         141.6924  139.4538  165.5801 H       1  UNL1        0.1424
@<TRIPOS>BOND
     1    21    22    1
     2    22    23    1
     3    22    15    1
     4    15    16    1
     5    16    17    1
     6    17    18    1
     7    18    14    1
     8    14     7    1
     9     7     8   ar
    10     8     9   ar
    11     9    10   ar
    12    10     1    1
    13     1     2   ar
    14     2     3   ar
    15     3     4   ar
    16     4    24    1
    17    24    25    2
    18    24    26   am
    19    26    28    1
    20    28    29   ar
    21    29    30   ar
    22    30    31   ar
    23    31    32   ar
    24    32    33   ar
    25    33    34    1
    26     4     5   ar
    27     5     6   ar
    28    10    11   ar
    29    11    12    1
    30    11    13   ar
    31    18    19    1
    32    19    20    1
    33    20    15    1
    34    13     7   ar
    35     6     1   ar
    36    33    28   ar
    37    26    27    1
    38    34    35    1
    39    34    36    1
@<TRIPOS>MOLECULE
*****
 36 39 0 0 0
SMALL
GASTEIGER

@<TRIPOS>ATOM
      1 C         140.9340  138.8482  162.0476 C.ar    1  UNL1        0.0185
      2 C         140.5753  137.7855  163.0436 C.ar    1  UNL1        0.0017
      3 C         140.3949  138.1428  164.4892 C.ar    1  UNL1        0.0046
      4 C         140.5732  139.5626  164.9388 C.ar    1  UNL1        0.0537
      5 C         140.9319  140.6253  163.9428 C.ar    1  UNL1        0.0046
      6 C         141.1122  140.2681  162.4972 C.ar    1  UNL1        0.0017
      7 C         141.4751  137.7767  157.7106 C.ar    1  UNL1        0.0139
      8 C         140.1256  138.1908  158.2182 C.ar    1  UNL1        0.0959
      9 N         139.9453  138.5479  159.6638 N.ar    1  UNL1       -0.2433
     10 C         141.1144  138.4910  160.6019 C.ar    1  UNL1        0.0918
     11 C         142.4638  138.0769  160.0944 C.ar    1  UNL1        0.0750
     12 CL        143.6328  138.0200  161.0325 Cl      1  UNL1       -0.0807
     13 C         142.6442  137.7198  158.6487 C.ar    1  UNL1        0.0115
     14 C         141.6554  137.4195  156.2650 C.3     1  UNL1        0.1008
     15 N         142.9429  133.2630  155.1179 N.3     1  UNL1       -0.2716
     16 C         143.9068  134.1837  155.8057 C.3     1  UNL1        0.0896
     17 C         143.4776  135.5692  156.1881 C.3     1  UNL1        0.0899
     18 N         142.0846  136.0340  155.8826 N.3     1  UNL1       -0.2665
     19 C         141.1207  135.1133  155.1948 C.3     1  UNL1        0.0899
     20 C         141.5499  133.7278  154.8124 C.3     1  UNL1        0.0896
     21 C         142.7441  131.1966  153.5557 C.3     1  UNL1        0.0173
     22 C         143.3721  131.8775  154.7355 C.3     1  UNL1        0.0577
     23 C         144.4293  131.1729  155.5329 C.3     1  UNL1        0.0173
     24 C         140.3928  139.9198  166.3845 C.2     1  UNL1        0.2495
     25 O         139.1896  139.4292  167.1338 O.2     1  UNL1       -0.2698
     26 N         141.4157  140.7677  167.0809 N.am    1  UNL1       -0.2794
     27 H         142.2054  141.0897  166.5891 H       1  UNL1        0.1552
     28 C         141.2352  141.1248  168.5265 C.ar    1  UNL1        0.0636
     29 C         140.3420  142.2669  168.9111 C.ar    1  UNL1        0.0159
     30 C         140.1616  142.6240  170.3567 C.ar    1  UNL1        0.0014
     31 C         140.8743  141.8391  171.4178 C.ar    1  UNL1        0.0013
     32 C         141.7675  140.6971  171.0333 C.ar    1  UNL1        0.0153
     33 C         141.9480  140.3399  169.5876 C.ar    1  UNL1        0.0552
     34 N         142.8412  139.1978  169.2031 N.pl3   1  UNL1       -0.3560
     35 H         143.3089  138.6827  169.8995 H       1  UNL1        0.1424
     36 H         142.9596  138.9634  168.2542 H       1  UNL1        0.1424
@<TRIPOS>BOND
     1    21    22    1
     2    22    23    1
     3    22    15    1
     4    15    16    1
     5    16    17    1
     6    17    18    1
     7    18    14    1
     8    14     7    1
     9     7     8   ar
    10     8     9   ar
    11     9    10   ar
    12    10     1    1
    13     1     2   ar
    14     2     3   ar
    15     3     4   ar
    16     4    24    1
    17    24    25    2
    18    24    26   am
    19    26    28    1
    20    28    29   ar
    21    29    30   ar
    22    30    31   ar
    23    31    32   ar
    24    32    33   ar
    25    33    34    1
    26     4     5   ar
    27     5     6   ar
    28    10    11   ar
    29    11    12    1
    30    11    13   ar
    31    18    19    1
    32    19    20    1
    33    20    15    1
    34    13     7   ar
    35     6     1   ar
    36    33    28   ar
    37    26    27    1
    38    34    35    1
    39    34    36    1
@<TRIPOS>MOLECULE
*****
 36 39 0 0 0
SMALL
GASTEIGER

@<TRIPOS>ATOM
      1 C         142.8102  139.6448  159.2493 C.ar    1  UNL1        0.0185
      2 C         142.7676  138.9582  157.9163 C.ar    1  UNL1        0.0017
      3 C         143.6589  139.4246  156.8037 C.ar    1  UNL1        0.0046
      4 C         144.5928  140.5775  157.0241 C.ar    1  UNL1        0.0537
      5 C         144.6354  141.2641  158.3570 C.ar    1  UNL1        0.0046
      6 C         143.7441  140.7977  159.4696 C.ar    1  UNL1        0.0017
      7 C         140.1360  138.2457  162.5873 C.ar    1  UNL1        0.0139
      8 C         139.6336  139.2530  161.5958 C.ar    1  UNL1        0.0959
      9 N         140.5250  139.7193  160.4832 N.ar    1  UNL1       -0.2433
     10 C         141.9188  139.1784  160.3620 C.ar    1  UNL1        0.0918
     11 C         142.4212  138.1711  161.3533 C.ar    1  UNL1        0.0750
     12 CL        143.8150  137.6301  161.2321 Cl      1  UNL1       -0.0807
     13 C         141.5298  137.7047  162.4660 C.ar    1  UNL1        0.0115
     14 C         139.2447  137.7793  163.6999 C.3     1  UNL1        0.1008
     15 N         139.4239  139.7923  167.7206 N.3     1  UNL1       -0.2716
     16 C         138.1930  139.0377  167.3138 C.3     1  UNL1        0.0896
     17 C         138.1333  138.3667  165.9736 C.3     1  UNL1        0.0899
     18 N         139.3044  138.4503  165.0401 N.3     1  UNL1       -0.2665
     19 C         140.5352  139.2050  165.4468 C.3     1  UNL1        0.0899
     20 C         140.5950  139.8760  166.7871 C.3     1  UNL1        0.0896
     21 C         140.5690  141.4560  169.3548 C.3     1  UNL1        0.0173
     22 C         139.4836  140.4634  169.0608 C.3     1  UNL1        0.0577
     23 C         138.4580  140.1417  170.1070 C.3     1  UNL1        0.0173
     24 C         145.4842  141.0439  155.9114 C.2     1  UNL1        0.2495
     25 O         145.3529  140.4430  154.5433 O.2     1  UNL1       -0.2698
     26 N         146.5068  142.1112  156.1668 N.am    1  UNL1       -0.2794
     27 H         146.5929  142.5056  157.0647 H       1  UNL1        0.1552
     28 C         147.3981  142.5775  155.0541 C.ar    1  UNL1        0.0636
     29 C         148.7314  141.9251  154.8376 C.ar    1  UNL1        0.0159
     30 C         149.6227  142.3914  153.7250 C.ar    1  UNL1        0.0014
     31 C         149.1808  143.5101  152.8287 C.ar    1  UNL1        0.0013
     32 C         147.8476  144.1625  153.0452 C.ar    1  UNL1        0.0153
     33 C         146.9562  143.6962  154.1579 C.ar    1  UNL1        0.0552
     34 N         145.6230  144.3486  154.3743 N.pl3   1  UNL1       -0.3560
     35 H         145.3329  145.0828  153.7861 H       1  UNL1        0.1424
     36 H         145.0379  144.0425  155.1046 H       1  UNL1        0.1424
@<TRIPOS>BOND
     1    21    22    1
     2    22    23    1
     3    22    15    1
     4    15    16    1
     5    16    17    1
     6    17    18    1
     7    18    14    1
     8    14     7    1
     9     7     8   ar
    10     8     9   ar
    11     9    10   ar
    12    10     1    1
    13     1     2   ar
    14     2     3   ar
    15     3     4   ar
    16     4    24    1
    17    24    25    2
    18    24    26   am
    19    26    28    1
    20    28    29   ar
    21    29    30   ar
    22    30    31   ar
    23    31    32   ar
    24    32    33   ar
    25    33    34    1
    26     4     5   ar
    27     5     6   ar
    28    10    11   ar
    29    11    12    1
    30    11    13   ar
    31    18    19    1
    32    19    20    1
    33    20    15    1
    34    13     7   ar
    35     6     1   ar
    36    33    28   ar
    37    26    27    1
    38    34    35    1
    39    34    36    1
@<TRIPOS>MOLECULE
*****
 36 39 0 0 0
SMALL
GASTEIGER

@<TRIPOS>ATOM
      1 C         139.9458  143.0996  160.4420 C.ar    1  UNL1        0.0185
      2 C         139.3382  142.8198  159.0994 C.ar    1  UNL1        0.0017
      3 C         139.5396  143.7851  157.9692 C.ar    1  UNL1        0.0046
      4 C         140.3487  145.0303  158.1816 C.ar    1  UNL1        0.0537
      5 C         140.9562  145.3101  159.5241 C.ar    1  UNL1        0.0046
      6 C         140.7548  144.3447  160.6543 C.ar    1  UNL1        0.0017
      7 C         139.3415  140.2034  163.8329 C.ar    1  UNL1        0.0139
      8 C         140.3994  139.9415  162.8022 C.ar    1  UNL1        0.0959
      9 N         140.6008  140.9068  161.6720 N.ar    1  UNL1       -0.2433
     10 C         139.7443  142.1342  161.5723 C.ar    1  UNL1        0.0918
     11 C         138.6864  142.3962  162.6029 C.ar    1  UNL1        0.0750
     12 CL        137.8299  143.6236  162.5032 Cl      1  UNL1       -0.0807
     13 C         138.4850  141.4308  163.7332 C.ar    1  UNL1        0.0115
     14 C         139.1401  139.2381  164.9631 C.3     1  UNL1        0.1008
     15 N         141.0449  140.0275  168.9629 N.3     1  UNL1       -0.2716
     16 C         139.5515  140.0519  168.8255 C.3     1  UNL1        0.0896
     17 C         138.9165  139.7888  167.4923 C.3     1  UNL1        0.0899
     18 N         139.7750  139.5012  166.2964 N.3     1  UNL1       -0.2665
     19 C         141.2685  139.4769  166.4337 C.3     1  UNL1        0.0899
     20 C         141.9035  139.7400  167.7670 C.3     1  UNL1        0.0896
     21 C         140.9233  141.0404  171.3523 C.3     1  UNL1        0.0173
     22 C         141.6799  140.2907  170.2962 C.3     1  UNL1        0.0577
     23 C         143.0714  139.8041  170.5733 C.3     1  UNL1        0.0173
     24 C         140.5501  145.9957  157.0512 C.2     1  UNL1        0.2495
     25 O         141.9243  146.2223  156.4944 O.2     1  UNL1       -0.2698
     26 N         139.3773  146.7344  156.4778 N.am    1  UNL1       -0.2794
     27 H         138.4753  146.5856  156.8433 H       1  UNL1        0.1552
     28 C         139.5788  147.6997  155.3476 C.ar    1  UNL1        0.0636
     29 C         140.3053  147.2640  154.1096 C.ar    1  UNL1        0.0159
     30 C         140.5067  148.2293  152.9793 C.ar    1  UNL1        0.0014
     31 C         139.9818  149.6304  153.0870 C.ar    1  UNL1        0.0013
     32 C         139.2553  150.0660  154.3249 C.ar    1  UNL1        0.0153
     33 C         139.0538  149.1007  155.4552 C.ar    1  UNL1        0.0552
     34 N         138.3274  149.5364  156.6931 N.pl3   1  UNL1       -0.3560
     35 H         137.9828  150.4559  156.7637 H       1  UNL1        0.1424
     36 H         138.1951  148.9028  157.4349 H       1  UNL1        0.1424
@<TRIPOS>BOND
     1    21    22    1
     2    22    23    1
     3    22    15    1
     4    15    16    1
     5    16    17    1
     6    17    18    1
     7    18    14    1
     8    14     7    1
     9     7     8   ar
    10     8     9   ar
    11     9    10   ar
    12    10     1    1
    13     1     2   ar
    14     2     3   ar
    15     3     4   ar
    16     4    24    1
    17    24    25    2
    18    24    26   am
    19    26    28    1
    20    28    29   ar
    21    29    30   ar
    22    30    31   ar
    23    31    32   ar
    24    32    33   ar
    25    33    34    1
    26     4     5   ar
    27     5     6   ar
    28    10    11   ar
    29    11    12    1
    30    11    13   ar
    31    18    19    1
    32    19    20    1
    33    20    15    1
    34    13     7   ar
    35     6     1   ar
    36    33    28   ar
    37    26    27    1
    38    34    35    1
    39    34    36    1
@<TRIPOS>MOLECULE
*****
 36 39 0 0 0
SMALL
GASTEIGER

@<TRIPOS>ATOM
      1 C         142.9367  140.7943  159.7990 C.ar    1  UNL1        0.0185
      2 C         143.8144  142.0100  159.7577 C.ar    1  UNL1        0.0017
      3 C         144.7302  142.2345  158.5911 C.ar    1  UNL1        0.0046
      4 C         144.7682  141.2434  157.4658 C.ar    1  UNL1        0.0537
      5 C         143.8906  140.0277  157.5071 C.ar    1  UNL1        0.0046
      6 C         142.9748  139.8032  158.6737 C.ar    1  UNL1        0.0017
      7 C         140.1893  140.1205  163.2987 C.ar    1  UNL1        0.0139
      8 C         139.7073  140.8885  162.1038 C.ar    1  UNL1        0.0959
      9 N         140.6231  141.1131  160.9372 N.ar    1  UNL1       -0.2433
     10 C         142.0209  140.5697  160.9656 C.ar    1  UNL1        0.0918
     11 C         142.5030  139.8017  162.1605 C.ar    1  UNL1        0.0750
     12 CL        143.9008  139.2583  162.1889 Cl      1  UNL1       -0.0807
     13 C         141.5872  139.5771  163.3271 C.ar    1  UNL1        0.0115
     14 C         139.2735  139.8959  164.4653 C.3     1  UNL1        0.1008
     15 N         140.2081  141.7629  168.4516 N.3     1  UNL1       -0.2716
     16 C         140.4504  142.5330  167.1875 C.3     1  UNL1        0.0896
     17 C         140.1389  141.9107  165.8587 C.3     1  UNL1        0.0899
     18 N         139.5851  140.5183  165.7940 N.3     1  UNL1       -0.2665
     19 C         139.3427  139.7481  167.0582 C.3     1  UNL1        0.0899
     20 C         139.6543  140.3704  168.3870 C.3     1  UNL1        0.0896
     21 C         140.8662  141.5162  170.9528 C.3     1  UNL1        0.0173
     22 C         140.5197  142.3852  169.7804 C.3     1  UNL1        0.0577
     23 C         140.4846  143.8766  169.9368 C.3     1  UNL1        0.0173
     24 C         145.6841  141.4680  156.2992 C.2     1  UNL1        0.2495
     25 O         145.4006  140.8038  154.9845 O.2     1  UNL1       -0.2698
     26 N         146.8833  142.3568  156.4474 N.am    1  UNL1       -0.2794
     27 H         147.0693  142.7927  157.3103 H       1  UNL1        0.1552
     28 C         147.7990  142.5813  155.2808 C.ar    1  UNL1        0.0636
     29 C         149.0431  141.7562  155.1342 C.ar    1  UNL1        0.0159
     30 C         149.9589  141.9808  153.9676 C.ar    1  UNL1        0.0014
     31 C         149.6305  143.0304  152.9476 C.ar    1  UNL1        0.0013
     32 C         148.3865  143.8555  153.0941 C.ar    1  UNL1        0.0153
     33 C         147.4707  143.6310  154.2608 C.ar    1  UNL1        0.0552
     34 N         146.2266  144.4560  154.4073 N.pl3   1  UNL1       -0.3560
     35 H         146.0111  145.1449  153.7378 H       1  UNL1        0.1424
     36 H         145.6255  144.3086  155.1730 H       1  UNL1        0.1424
@<TRIPOS>BOND
     1    21    22    1
     2    22    23    1
     3    22    15    1
     4    15    16    1
     5    16    17    1
     6    17    18    1
     7    18    14    1
     8    14     7    1
     9     7     8   ar
    10     8     9   ar
    11     9    10   ar
    12    10     1    1
    13     1     2   ar
    14     2     3   ar
    15     3     4   ar
    16     4    24    1
    17    24    25    2
    18    24    26   am
    19    26    28    1
    20    28    29   ar
    21    29    30   ar
    22    30    31   ar
    23    31    32   ar
    24    32    33   ar
    25    33    34    1
    26     4     5   ar
    27     5     6   ar
    28    10    11   ar
    29    11    12    1
    30    11    13   ar
    31    18    19    1
    32    19    20    1
    33    20    15    1
    34    13     7   ar
    35     6     1   ar
    36    33    28   ar
    37    26    27    1
    38    34    35    1
    39    34    36    1
@<TRIPOS>MOLECULE
*****
 36 39 0 0 0
SMALL
GASTEIGER

@<TRIPOS>ATOM
      1 C         140.9311  139.6554  161.3674 C.ar    1  UNL1        0.0185
      2 C         140.6776  141.1298  161.4766 C.ar    1  UNL1        0.0017
      3 C         140.3936  141.7448  162.8149 C.ar    1  UNL1        0.0046
      4 C         140.3631  140.8854  164.0440 C.ar    1  UNL1        0.0537
      5 C         140.6166  139.4111  163.9347 C.ar    1  UNL1        0.0046
      6 C         140.9006  138.7961  162.5964 C.ar    1  UNL1        0.0017
      7 C         141.7832  137.8103  157.3524 C.ar    1  UNL1        0.0139
      8 C         140.3657  138.0206  157.7956 C.ar    1  UNL1        0.0959
      9 N         140.0817  138.6356  159.1339 N.ar    1  UNL1       -0.2433
     10 C         141.2152  139.0404  160.0290 C.ar    1  UNL1        0.0918
     11 C         142.6327  138.8301  159.5859 C.ar    1  UNL1        0.0750
     12 CL        143.7662  139.2349  160.4811 Cl      1  UNL1       -0.0807
     13 C         142.9167  138.2150  158.2476 C.ar    1  UNL1        0.0115
     14 C         142.0672  137.1952  156.0141 C.3     1  UNL1        0.1008
     15 N         142.6297  132.7448  155.6569 N.3     1  UNL1       -0.2716
     16 C         143.6887  133.5848  156.3071 C.3     1  UNL1        0.0896
     17 C         143.5012  135.0683  156.4262 C.3     1  UNL1        0.0899
     18 N         142.2547  135.7118  155.8950 N.3     1  UNL1       -0.2665
     19 C         141.1957  134.8718  155.2448 C.3     1  UNL1        0.0899
     20 C         141.3831  133.3883  155.1257 C.3     1  UNL1        0.0896
     21 C         142.6540  130.5892  154.2068 C.3     1  UNL1        0.0173
     22 C         142.8171  131.2614  155.5378 C.3     1  UNL1        0.0577
     23 C         143.1678  130.4500  156.7497 C.3     1  UNL1        0.0173
     24 C         140.0790  141.5005  165.3823 C.2     1  UNL1        0.2495
     25 O         139.1891  142.7039  165.4809 O.2     1  UNL1       -0.2698
     26 N         140.6849  140.9120  166.6219 N.am    1  UNL1       -0.2794
     27 H         141.2689  140.1222  166.5572 H       1  UNL1        0.1552
     28 C         140.4008  141.5271  167.9602 C.ar    1  UNL1        0.0636
     29 C         141.0094  142.8495  168.3223 C.ar    1  UNL1        0.0159
     30 C         140.7253  143.4645  169.6605 C.ar    1  UNL1        0.0014
     31 C         139.8327  142.7573  170.6367 C.ar    1  UNL1        0.0013
     32 C         139.2241  141.4350  170.2747 C.ar    1  UNL1        0.0153
     33 C         139.5081  140.8199  168.9364 C.ar    1  UNL1        0.0552
     34 N         138.8995  139.4976  168.5743 N.pl3   1  UNL1       -0.3560
     35 H         138.3136  139.0335  169.2151 H       1  UNL1        0.1424
     36 H         139.0859  139.0939  167.6960 H       1  UNL1        0.1424
@<TRIPOS>BOND
     1    21    22    1
     2    22    23    1
     3    22    15    1
     4    15    16    1
     5    16    17    1
     6    17    18    1
     7    18    14    1
     8    14     7    1
     9     7     8   ar
    10     8     9   ar
    11     9    10   ar
    12    10     1    1
    13     1     2   ar
    14     2     3   ar
    15     3     4   ar
    16     4    24    1
    17    24    25    2
    18    24    26   am
    19    26    28    1
    20    28    29   ar
    21    29    30   ar
    22    30    31   ar
    23    31    32   ar
    24    32    33   ar
    25    33    34    1
    26     4     5   ar
    27     5     6   ar
    28    10    11   ar
    29    11    12    1
    30    11    13   ar
    31    18    19    1
    32    19    20    1
    33    20    15    1
    34    13     7   ar
    35     6     1   ar
    36    33    28   ar
    37    26    27    1
    38    34    35    1
    39    34    36    1
@<TRIPOS>MOLECULE
*****
 36 39 0 0 0
SMALL
GASTEIGER

@<TRIPOS>ATOM
      1 C         143.0021  138.1455  157.7188 C.ar    1  UNL1        0.0185
      2 C         143.4102  139.4986  157.2162 C.ar    1  UNL1        0.0017
      3 C         143.7115  140.6003  158.1886 C.ar    1  UNL1        0.0046
      4 C         143.6047  140.3489  159.6635 C.ar    1  UNL1        0.0537
      5 C         143.1965  138.9958  160.1661 C.ar    1  UNL1        0.0046
      6 C         142.8952  137.8942  159.1937 C.ar    1  UNL1        0.0017
      7 C         142.0982  134.8403  154.8017 C.ar    1  UNL1        0.0139
      8 C         143.5168  135.1227  155.1993 C.ar    1  UNL1        0.0959
      9 N         143.8180  136.2244  156.1717 N.ar    1  UNL1       -0.2433
     10 C         142.7008  137.0438  156.7464 C.ar    1  UNL1        0.0918
     11 C         141.2823  136.7615  156.3488 C.ar    1  UNL1        0.0750
     12 CL        140.1650  137.5809  156.9236 Cl      1  UNL1       -0.0807
     13 C         140.9809  135.6597  155.3765 C.ar    1  UNL1        0.0115
     14 C         141.7969  133.7386  153.8294 C.3     1  UNL1        0.1008
     15 N         141.1800  129.5351  155.3124 N.3     1  UNL1       -0.2716
     16 C         142.3858  130.3143  155.7470 C.3     1  UNL1        0.0896
     17 C         142.5914  131.7155  155.2526 C.3     1  UNL1        0.0899
     18 N         141.5913  132.3374  154.3237 N.3     1  UNL1       -0.2665
     19 C         140.3856  131.5582  153.8891 C.3     1  UNL1        0.0899
     20 C         140.1799  130.1570  154.3835 C.3     1  UNL1        0.0896
     21 C         142.1390  127.3424  156.3235 C.3     1  UNL1        0.0173
     22 C         140.9744  128.1339  155.8067 C.3     1  UNL1        0.0577
     23 C         139.6041  127.5241  155.7842 C.3     1  UNL1        0.0173
     24 C         143.9060  141.4506  160.6359 C.2     1  UNL1        0.2495
     25 O         145.0013  142.4322  160.3412 O.2     1  UNL1       -0.2698
     26 N         143.1120  141.5707  161.9028 N.am    1  UNL1       -0.2794
     27 H         142.3932  140.9265  162.0962 H       1  UNL1        0.1552
     28 C         143.4134  142.6724  162.8751 C.ar    1  UNL1        0.0636
     29 C         143.9795  142.3469  164.2255 C.ar    1  UNL1        0.0159
     30 C         144.2808  143.4486  165.1978 C.ar    1  UNL1        0.0014
     31 C         144.0161  144.8759  164.8198 C.ar    1  UNL1        0.0013
     32 C         143.4500  145.2014  163.4694 C.ar    1  UNL1        0.0153
     33 C         143.1486  144.0996  162.4970 C.ar    1  UNL1        0.0552
     34 N         142.5825  144.4252  161.1467 N.pl3   1  UNL1       -0.3560
     35 H         142.4087  145.3619  160.8985 H       1  UNL1        0.1424
     36 H         142.3847  143.7021  160.5085 H       1  UNL1        0.1424
@<TRIPOS>BOND
     1    21    22    1
     2    22    23    1
     3    22    15    1
     4    15    16    1
     5    16    17    1
     6    17    18    1
     7    18    14    1
     8    14     7    1
     9     7     8   ar
    10     8     9   ar
    11     9    10   ar
    12    10     1    1
    13     1     2   ar
    14     2     3   ar
    15     3     4   ar
    16     4    24    1
    17    24    25    2
    18    24    26   am
    19    26    28    1
    20    28    29   ar
    21    29    30   ar
    22    30    31   ar
    23    31    32   ar
    24    32    33   ar
    25    33    34    1
    26     4     5   ar
    27     5     6   ar
    28    10    11   ar
    29    11    12    1
    30    11    13   ar
    31    18    19    1
    32    19    20    1
    33    20    15    1
    34    13     7   ar
    35     6     1   ar
    36    33    28   ar
    37    26    27    1
    38    34    35    1
    39    34    36    1
@<TRIPOS>MOLECULE
*****
 36 39 0 0 0
SMALL
GASTEIGER

@<TRIPOS>ATOM
      1 C         140.4618  139.0236  160.5279 C.ar    1  UNL1        0.0185
      2 C         140.3279  140.4957  160.7822 C.ar    1  UNL1        0.0017
      3 C         140.0392  140.9944  162.1670 C.ar    1  UNL1        0.0046
      4 C         139.8843  140.0208  163.2976 C.ar    1  UNL1        0.0537
      5 C         140.0182  138.5487  163.0433 C.ar    1  UNL1        0.0046
      6 C         140.3069  138.0500  161.6584 C.ar    1  UNL1        0.0017
      7 C         141.3279  137.5274  156.3731 C.ar    1  UNL1        0.0139
      8 C         139.9087  137.6984  156.8281 C.ar    1  UNL1        0.0959
      9 N         139.6201  138.1971  158.2130 N.ar    1  UNL1       -0.2433
     10 C         140.7505  138.5248  159.1429 C.ar    1  UNL1        0.0918
     11 C         142.1695  138.3539  158.6880 C.ar    1  UNL1        0.0750
     12 CL        143.2999  138.6816  159.6179 Cl      1  UNL1       -0.0807
     13 C         142.4582  137.8552  157.3030 C.ar    1  UNL1        0.0115
     14 C         141.6165  137.0288  154.9882 C.3     1  UNL1        0.1008
     15 N         141.2750  132.6386  154.0608 N.3     1  UNL1       -0.2716
     16 C         141.0188  133.6541  152.9871 C.3     1  UNL1        0.0896
     17 C         141.1326  135.1175  153.2962 C.3     1  UNL1        0.0899
     18 N         141.5027  135.5654  154.6791 N.3     1  UNL1       -0.2665
     19 C         141.7589  134.5499  155.7528 C.3     1  UNL1        0.0899
     20 C         141.6451  133.0865  155.4437 C.3     1  UNL1        0.0896
     21 C         139.9434  130.6491  153.0516 C.3     1  UNL1        0.0173
     22 C         141.1612  131.1752  153.7517 C.3     1  UNL1        0.0577
     23 C         142.2650  130.2380  154.1428 C.3     1  UNL1        0.0173
     24 C         139.5956  140.5195  164.6826 C.2     1  UNL1        0.2495
     25 O         138.4161  141.4134  164.9271 O.2     1  UNL1       -0.2698
     26 N         140.4864  140.1244  165.8229 N.am    1  UNL1       -0.2794
     27 H         141.2605  139.5377  165.6624 H       1  UNL1        0.1552
     28 C         140.1976  140.6231  167.2078 C.ar    1  UNL1        0.0636
     29 C         139.3407  139.8116  168.1337 C.ar    1  UNL1        0.0159
     30 C         139.0520  140.3103  169.5186 C.ar    1  UNL1        0.0014
     31 C         139.6201  141.6205  169.9775 C.ar    1  UNL1        0.0013
     32 C         140.4769  142.4320  169.0517 C.ar    1  UNL1        0.0153
     33 C         140.7657  141.9333  167.6667 C.ar    1  UNL1        0.0552
     34 N         141.6226  142.7447  166.7409 N.pl3   1  UNL1       -0.3560
     35 H         141.9954  143.6047  167.0421 H       1  UNL1        0.1424
     36 H         141.8121  142.4174  165.8319 H       1  UNL1        0.1424
@<TRIPOS>BOND
     1    21    22    1
     2    22    23    1
     3    22    15    1
     4    15    16    1
     5    16    17    1
     6    17    18    1
     7    18    14    1
     8    14     7    1
     9     7     8   ar
    10     8     9   ar
    11     9    10   ar
    12    10     1    1
    13     1     2   ar
    14     2     3   ar
    15     3     4   ar
    16     4    24    1
    17    24    25    2
    18    24    26   am
    19    26    28    1
    20    28    29   ar
    21    29    30   ar
    22    30    31   ar
    23    31    32   ar
    24    32    33   ar
    25    33    34    1
    26     4     5   ar
    27     5     6   ar
    28    10    11   ar
    29    11    12    1
    30    11    13   ar
    31    18    19    1
    32    19    20    1
    33    20    15    1
    34    13     7   ar
    35     6     1   ar
    36    33    28   ar
    37    26    27    1
    38    34    35    1
    39    34    36    1
@<TRIPOS>MOLECULE
*****
 36 39 0 0 0
SMALL
GASTEIGER

@<TRIPOS>ATOM
      1 C         140.8911  138.4115  157.9643 C.ar    1  UNL1        0.0185
      2 C         141.4272  139.8020  157.7931 C.ar    1  UNL1        0.0017
      3 C         141.0000  140.8912  158.7317 C.ar    1  UNL1        0.0046
      4 C         140.0368  140.5900  159.8415 C.ar    1  UNL1        0.0537
      5 C         139.5008  139.1996  160.0126 C.ar    1  UNL1        0.0046
      6 C         139.9280  138.1104  159.0740 C.ar    1  UNL1        0.0017
      7 C         142.1727  135.1436  155.1485 C.ar    1  UNL1        0.0139
      8 C         143.0766  135.5657  156.2687 C.ar    1  UNL1        0.0959
      9 N         142.6494  136.6550  157.2073 N.ar    1  UNL1       -0.2433
     10 C         141.3183  137.3222  157.0257 C.ar    1  UNL1        0.0918
     11 C         140.4144  136.9001  155.9055 C.ar    1  UNL1        0.0750
     12 CL        139.0833  137.5674  155.7239 Cl      1  UNL1       -0.0807
     13 C         140.8416  135.8108  154.9669 C.ar    1  UNL1        0.0115
     14 C         142.5998  134.0543  154.2100 C.3     1  UNL1        0.1008
     15 N         142.1829  129.7425  155.4285 N.3     1  UNL1       -0.2716
     16 C         140.9804  130.5110  154.9665 C.3     1  UNL1        0.0896
     17 C         141.1194  131.9482  154.5603 C.3     1  UNL1        0.0899
     18 N         142.4609  132.6170  154.6161 N.3     1  UNL1       -0.2665
     19 C         143.6633  131.8485  155.0781 C.3     1  UNL1        0.0899
     20 C         143.5243  130.4113  155.4843 C.3     1  UNL1        0.0896
     21 C         141.2041  127.3718  155.0141 C.3     1  UNL1        0.0173
     22 C         142.0439  128.3052  155.8347 C.3     1  UNL1        0.0577
     23 C         142.7447  127.8014  157.0614 C.3     1  UNL1        0.0173
     24 C         139.6096  141.6794  160.7801 C.2     1  UNL1        0.2495
     25 O         139.0459  142.9590  160.2370 O.2     1  UNL1       -0.2698
     26 N         139.7462  141.4891  162.2617 N.am    1  UNL1       -0.2794
     27 H         140.1162  140.6493  162.6181 H       1  UNL1        0.1552
     28 C         139.3190  142.5784  163.2002 C.ar    1  UNL1        0.0636
     29 C         140.2774  143.6736  163.5640 C.ar    1  UNL1        0.0159
     30 C         139.8502  144.7629  164.5025 C.ar    1  UNL1        0.0014
     31 C         138.4647  144.7571  165.0773 C.ar    1  UNL1        0.0013
     32 C         137.5064  143.6621  164.7136 C.ar    1  UNL1        0.0153
     33 C         137.9335  142.5727  163.7750 C.ar    1  UNL1        0.0552
     34 N         136.9752  141.4776  163.4112 N.pl3   1  UNL1       -0.3560
     35 H         136.0659  141.4738  163.7885 H       1  UNL1        0.1424
     36 H         137.2555  140.7626  162.7952 H       1  UNL1        0.1424
@<TRIPOS>BOND
     1    21    22    1
     2    22    23    1
     3    22    15    1
     4    15    16    1
     5    16    17    1
     6    17    18    1
     7    18    14    1
     8    14     7    1
     9     7     8   ar
    10     8     9   ar
    11     9    10   ar
    12    10     1    1
    13     1     2   ar
    14     2     3   ar
    15     3     4   ar
    16     4    24    1
    17    24    25    2
    18    24    26   am
    19    26    28    1
    20    28    29   ar
    21    29    30   ar
    22    30    31   ar
    23    31    32   ar
    24    32    33   ar
    25    33    34    1
    26     4     5   ar
    27     5     6   ar
    28    10    11   ar
    29    11    12    1
    30    11    13   ar
    31    18    19    1
    32    19    20    1
    33    20    15    1
    34    13     7   ar
    35     6     1   ar
    36    33    28   ar
    37    26    27    1
    38    34    35    1
    39    34    36    1
