@<TRIPOS>MOLECULE
*****
 40 46 0 0 0
SMALL
GASTEIGER

@<TRIPOS>ATOM
      1 C         139.9614  141.7608  161.1396 C.3     1  UNL1        0.1706
      2 N         140.6980  141.1488  159.9851 N.3     1  UNL1       -0.2797
      3 C         141.0244  139.6848  159.9951 C.3     1  UNL1        0.1167
      4 C         140.6143  138.8328  161.1595 C.3     1  UNL1        0.0511
      5 C         139.8777  139.4449  162.3140 C.2     1  UNL1       -0.0037
      6 C         139.5513  140.9089  162.3040 C.2     1  UNL1        0.0800
      7 N         138.8208  141.2295  163.5743 N.2     1  UNL1       -0.2519
      8 C         138.6958  139.9637  164.3693 C.2     1  UNL1        0.0627
      9 C         138.0715  139.6729  165.7019 C.3     1  UNL1        0.0717
     10 C         138.1004  138.2792  166.2555 C.2     1  UNL1       -0.0198
     11 C         138.7537  137.1762  165.4766 C.2     1  UNL1       -0.0042
     12 C         139.3779  137.4669  164.1441 C.2     1  UNL1        0.0006
     13 C         139.3490  138.8607  163.5904 C.2     1  UNL1        0.0111
     14 H         141.5840  141.6475  159.9034 H       1  UNL1        0.1246
     15 C         139.2858  142.7933  161.9926 C.ar    1  UNL1        0.2478
     16 N         137.9900  143.4822  161.6828 N.ar    1  UNL1       -0.1096
     17 N         137.6908  144.4328  162.8040 N.ar    1  UNL1       -0.1116
     18 C         138.8017  144.3312  163.8067 C.ar    1  UNL1        0.2267
     19 C         138.9081  145.1068  165.0862 C.3     1  UNL1        0.0967
     20 O         139.7875  143.3179  163.3052 O.2     1  UNL1       -0.4213
     21 C         141.7610  139.0727  158.8405 C.ar    1  UNL1        0.1319
     22 N         141.6289  137.6575  158.3611 N.ar    1  UNL1       -0.2282
     23 C         142.5452  137.4785  157.1871 C.ar    1  UNL1        0.1171
     24 C         143.2435  138.7830  156.9409 C.ar    1  UNL1        0.0942
     25 N         142.7588  139.7683  157.9628 N.ar    1  UNL1       -0.3385
     26 H         143.0454  140.7067  158.0433 H       1  UNL1        0.1672
     27 C         142.7306  136.2164  156.3978 C.ar    1  UNL1        0.1006
     28 C         142.3931  136.1893  154.9365 C.ar    1  UNL1        0.0230
     29 C         142.5785  134.9274  154.1472 C.ar    1  UNL1        0.0328
     30 C         143.1014  133.6925  154.8192 C.ar    1  UNL1        0.1592
     31 F         143.2868  132.4305  154.0298 F       1  UNL1       -0.2025
     32 C         143.4390  133.7196  156.2804 C.ar    1  UNL1        0.1284
     33 N         143.2536  134.9816  157.0697 N.ar    1  UNL1       -0.2399
     34 N         140.0057  144.5045  158.3944 N.ar    1  UNL1       -0.2497
     35 C         139.5907  143.1492  158.8857 C.ar    1  UNL1        0.0944
     36 C         140.1369  142.9714  160.2714 C.ar    1  UNL1        0.0439
     37 C         140.8894  144.2166  160.6364 C.ar    1  UNL1        0.1194
     38 N         140.8082  145.1641  159.4763 N.ar    1  UNL1       -0.1679
     39 C         139.9181  146.5541  156.8003 C.3     1  UNL1        0.0284
     40 C         139.6759  145.0961  157.0560 C.3     1  UNL1        0.1276
@<TRIPOS>BOND
     1    39    40    1
     2    40    34    1
     3    34    35   ar
     4    35    36   ar
     5     1    36    1
     6     1    15    1
     7    15    16   ar
     8    16    17   ar
     9    17    18   ar
    10    18    19    1
    11    18    20   ar
    12     1     2    1
    13     2     3    1
    14     3    21    1
    15    21    22   ar
    16    22    23   ar
    17    23    27    1
    18    27    28   ar
    19    28    29   ar
    20    29    30   ar
    21    30    31    1
    22    30    32   ar
    23    32    33   ar
    24    23    24   ar
    25    24    25   ar
    26     3     4    1
    27     4     5    1
    28     5     6    2
    29     6     7    1
    30     7     8    2
    31     8     9    1
    32     9    10    1
    33    10    11    2
    34    11    12    1
    35    12    13    2
    36    36    37   ar
    37    37    38   ar
    38    38    34   ar
    39     6     1    1
    40    13     8    1
    41    20    15   ar
    42    25    21   ar
    43    13     5    1
    44    33    27   ar
    45     2    14    1
    46    25    26    1
@<TRIPOS>MOLECULE
*****
 40 46 0 0 0
SMALL
GASTEIGER

@<TRIPOS>ATOM
      1 C         141.5306  141.9902  161.7456 C.3     1  UNL1        0.1706
      2 N         141.7661  141.2359  160.4707 N.3     1  UNL1       -0.2797
      3 C         142.3433  139.8521  160.5136 C.3     1  UNL1        0.1167
      4 C         142.6849  139.2225  161.8315 C.3     1  UNL1        0.0511
      5 C         142.4495  139.9767  163.1065 C.2     1  UNL1       -0.0037
      6 C         141.8723  141.3606  163.0636 C.2     1  UNL1        0.0800
      7 N         141.7523  141.8566  164.4741 N.2     1  UNL1       -0.2519
      8 C         142.2553  140.7794  165.3887 C.2     1  UNL1        0.0627
      9 C         142.3766  140.7063  166.8820 C.3     1  UNL1        0.0717
     10 C         142.9287  139.4714  167.5300 C.2     1  UNL1       -0.0198
     11 C         143.3596  138.3095  166.6848 C.2     1  UNL1       -0.0042
     12 C         143.2383  138.3826  165.1915 C.2     1  UNL1        0.0006
     13 C         142.6861  139.6175  164.5435 C.2     1  UNL1        0.0111
     14 H         142.3999  141.8020  159.9065 H       1  UNL1        0.1246
     15 C         141.1279  143.0966  162.6751 C.ar    1  UNL1        0.2478
     16 N         141.9373  144.3184  162.9943 N.ar    1  UNL1       -0.1096
     17 N         141.1546  145.1522  163.9651 N.ar    1  UNL1       -0.1116
     18 C         139.8616  144.4456  164.2458 C.ar    1  UNL1        0.2267
     19 C         138.7758  144.9253  165.1627 C.3     1  UNL1        0.0967
     20 O         139.8451  143.1751  163.4485 O.2     1  UNL1       -0.4213
     21 C         142.5788  139.0978  159.2385 C.ar    1  UNL1        0.1319
     22 N         142.2717  137.6488  159.0019 N.ar    1  UNL1       -0.2282
     23 C         142.6658  137.3155  157.5935 C.ar    1  UNL1        0.1171
     24 C         143.2164  138.5585  156.9597 C.ar    1  UNL1        0.0942
     25 N         143.1626  139.6601  157.9764 N.ar    1  UNL1       -0.3385
     26 H         143.4585  140.5890  157.8394 H       1  UNL1        0.1672
     27 C         142.5327  135.9745  156.9345 C.ar    1  UNL1        0.1006
     28 C         141.5583  135.7849  155.8100 C.ar    1  UNL1        0.0230
     29 C         141.4251  134.4440  155.1511 C.ar    1  UNL1        0.0328
     30 C         142.2664  133.2927  155.6166 C.ar    1  UNL1        0.1592
     31 F         142.1333  131.9518  154.9577 F       1  UNL1       -0.2025
     32 C         143.2408  133.4824  156.7411 C.ar    1  UNL1        0.1284
     33 N         143.3740  134.8232  157.4001 N.ar    1  UNL1       -0.2399
     34 N         141.0173  144.7078  159.0223 N.ar    1  UNL1       -0.2497
     35 C         141.9137  143.8323  159.8470 C.ar    1  UNL1        0.0944
     36 C         141.0491  143.0040  160.7506 C.ar    1  UNL1        0.0439
     37 C         139.6184  143.3677  160.4844 C.ar    1  UNL1        0.1194
     38 N         139.5988  144.4206  159.4162 N.ar    1  UNL1       -0.1679
     39 C         140.4789  146.2244  156.9827 C.3     1  UNL1        0.0284
     40 C         141.4615  145.6968  157.9857 C.3     1  UNL1        0.1276
@<TRIPOS>BOND
     1    39    40    1
     2    40    34    1
     3    34    35   ar
     4    35    36   ar
     5     1    36    1
     6     1    15    1
     7    15    16   ar
     8    16    17   ar
     9    17    18   ar
    10    18    19    1
    11    18    20   ar
    12     1     2    1
    13     2     3    1
    14     3    21    1
    15    21    22   ar
    16    22    23   ar
    17    23    27    1
    18    27    28   ar
    19    28    29   ar
    20    29    30   ar
    21    30    31    1
    22    30    32   ar
    23    32    33   ar
    24    23    24   ar
    25    24    25   ar
    26     3     4    1
    27     4     5    1
    28     5     6    2
    29     6     7    1
    30     7     8    2
    31     8     9    1
    32     9    10    1
    33    10    11    2
    34    11    12    1
    35    12    13    2
    36    36    37   ar
    37    37    38   ar
    38    38    34   ar
    39     6     1    1
    40    13     8    1
    41    20    15   ar
    42    25    21   ar
    43    13     5    1
    44    33    27   ar
    45     2    14    1
    46    25    26    1
@<TRIPOS>MOLECULE
*****
 40 46 0 0 0
SMALL
GASTEIGER

@<TRIPOS>ATOM
      1 C         140.7398  141.1136  159.9029 C.3     1  UNL1        0.1706
      2 N         141.0864  140.0431  158.9110 N.3     1  UNL1       -0.2797
      3 C         142.4131  139.3477  158.9911 C.3     1  UNL1        0.1167
      4 C         143.3931  139.7229  160.0629 C.3     1  UNL1        0.0511
      5 C         143.0464  140.7934  161.0548 C.2     1  UNL1       -0.0037
      6 C         141.7198  141.4887  160.9748 C.2     1  UNL1        0.0800
      7 N         141.6576  142.4974  162.0833 N.2     1  UNL1       -0.2519
      8 C         142.9458  142.4254  162.8483 C.2     1  UNL1        0.0627
      9 C         143.4481  143.1828  164.0417 C.3     1  UNL1        0.0717
     10 C         144.8088  142.8870  164.5993 C.2     1  UNL1       -0.0198
     11 C         145.6671  141.8338  163.9637 C.2     1  UNL1       -0.0042
     12 C         145.1648  141.0764  162.7704 C.2     1  UNL1        0.0006
     13 C         143.8042  141.3722  162.2127 C.2     1  UNL1        0.0111
     14 H         141.0331  140.4701  157.9863 H       1  UNL1        0.1246
     15 C         139.9585  142.1829  160.6076 C.ar    1  UNL1        0.2478
     16 N         139.9301  143.6380  160.2449 N.ar    1  UNL1       -0.1096
     17 N         139.0226  144.3391  161.2119 N.ar    1  UNL1       -0.1116
     18 C         138.4902  143.3171  162.1721 C.ar    1  UNL1        0.2267
     19 C         137.5452  143.5814  163.3067 C.3     1  UNL1        0.0967
     20 O         139.0686  141.9845  161.7986 O.2     1  UNL1       -0.4213
     21 C         142.7598  138.2772  157.9991 C.ar    1  UNL1        0.1319
     22 N         142.4192  136.8212  158.1183 N.ar    1  UNL1       -0.2282
     23 C         142.9568  136.1188  156.9068 C.ar    1  UNL1        0.1171
     24 C         143.6296  137.1407  156.0390 C.ar    1  UNL1        0.0942
     25 N         143.5078  138.4746  156.7141 N.ar    1  UNL1       -0.3385
     26 H         143.8575  139.3296  156.3736 H       1  UNL1        0.1672
     27 C         142.8418  134.6520  156.6145 C.ar    1  UNL1        0.1006
     28 C         141.8297  134.1623  155.6217 C.ar    1  UNL1        0.0230
     29 C         141.7147  132.6956  155.3293 C.ar    1  UNL1        0.0328
     30 C         142.6118  131.7186  156.0299 C.ar    1  UNL1        0.1592
     31 F         142.4968  130.2518  155.7376 F       1  UNL1       -0.2025
     32 C         143.6239  132.2084  157.0227 C.ar    1  UNL1        0.1284
     33 N         143.7389  133.6751  157.3150 N.ar    1  UNL1       -0.2399
     34 N         137.8245  141.6829  157.4044 N.ar    1  UNL1       -0.2497
     35 C         139.1764  142.0443  157.9447 C.ar    1  UNL1        0.0944
     36 C         139.4885  141.1099  159.0758 C.ar    1  UNL1        0.0439
     37 C         138.3294  140.1709  159.2346 C.ar    1  UNL1        0.1194
     38 N         137.3011  140.5251  158.2016 N.ar    1  UNL1       -0.1679
     39 C         135.9820  141.6720  155.5727 C.3     1  UNL1        0.0284
     40 C         137.1198  142.3604  156.2666 C.3     1  UNL1        0.1276
@<TRIPOS>BOND
     1    39    40    1
     2    40    34    1
     3    34    35   ar
     4    35    36   ar
     5     1    36    1
     6     1    15    1
     7    15    16   ar
     8    16    17   ar
     9    17    18   ar
    10    18    19    1
    11    18    20   ar
    12     1     2    1
    13     2     3    1
    14     3    21    1
    15    21    22   ar
    16    22    23   ar
    17    23    27    1
    18    27    28   ar
    19    28    29   ar
    20    29    30   ar
    21    30    31    1
    22    30    32   ar
    23    32    33   ar
    24    23    24   ar
    25    24    25   ar
    26     3     4    1
    27     4     5    1
    28     5     6    2
    29     6     7    1
    30     7     8    2
    31     8     9    1
    32     9    10    1
    33    10    11    2
    34    11    12    1
    35    12    13    2
    36    36    37   ar
    37    37    38   ar
    38    38    34   ar
    39     6     1    1
    40    13     8    1
    41    20    15   ar
    42    25    21   ar
    43    13     5    1
    44    33    27   ar
    45     2    14    1
    46    25    26    1
@<TRIPOS>MOLECULE
*****
 40 46 0 0 0
SMALL
GASTEIGER

@<TRIPOS>ATOM
      1 C         142.4131  142.6217  160.1386 C.3     1  UNL1        0.1706
      2 N         141.8885  143.2483  158.8807 N.3     1  UNL1       -0.2797
      3 C         140.7136  144.1788  158.9400 C.3     1  UNL1        0.1167
      4 C         140.0631  144.4827  160.2570 C.3     1  UNL1        0.0511
      5 C         140.5877  143.8561  161.5148 C.2     1  UNL1       -0.0037
      6 C         141.7626  142.9256  161.4556 C.2     1  UNL1        0.0800
      7 N         142.0566  142.4608  162.8512 N.2     1  UNL1       -0.2519
      8 C         141.0633  143.1041  163.7729 C.2     1  UNL1        0.0627
      9 C         140.8682  143.0160  165.2575 C.3     1  UNL1        0.0717
     10 C         139.7652  143.7903  165.9162 C.2     1  UNL1       -0.0198
     11 C         138.8574  144.6527  165.0903 C.2     1  UNL1       -0.0042
     12 C         139.0525  144.7407  163.6057 C.2     1  UNL1        0.0006
     13 C         140.1554  143.9664  162.9470 C.2     1  UNL1        0.0111
     14 H         141.6278  142.4841  158.2576 H       1  UNL1        0.1246
     15 C         143.2664  141.7890  161.0489 C.ar    1  UNL1        0.2478
     16 N         144.6232  142.1604  161.5695 N.ar    1  UNL1       -0.1096
     17 N         145.1080  141.0397  162.4408 N.ar    1  UNL1       -0.1116
     18 C         144.0509  139.9757  162.4585 C.ar    1  UNL1        0.2267
     19 C         144.1198  138.6767  163.2054 C.3     1  UNL1        0.0967
     20 O         142.9127  140.4389  161.5982 O.2     1  UNL1       -0.4213
     21 C         140.1890  144.8055  157.6821 C.ar    1  UNL1        0.1319
     22 N         140.4020  146.2259  157.2496 N.ar    1  UNL1       -0.2282
     23 C         139.7040  146.4201  155.9361 C.ar    1  UNL1        0.1171
     24 C         139.0596  145.1197  155.5570 C.ar    1  UNL1        0.0942
     25 N         139.3594  144.1219  156.6360 N.ar    1  UNL1       -0.3385
     26 H         139.0635  143.1830  156.6544 H       1  UNL1        0.1672
     27 C         139.6584  147.6915  155.1414 C.ar    1  UNL1        0.1006
     28 C         140.3108  147.7565  153.7923 C.ar    1  UNL1        0.0230
     29 C         140.2653  149.0278  152.9976 C.ar    1  UNL1        0.0328
     30 C         139.5672  150.2342  153.5520 C.ar    1  UNL1        0.1592
     31 F         139.5216  151.5056  152.7573 F       1  UNL1       -0.2025
     32 C         138.9147  150.1692  154.9011 C.ar    1  UNL1        0.1284
     33 N         138.9603  148.8979  155.6958 N.ar    1  UNL1       -0.2399
     34 N         145.1499  141.7830  157.5172 N.ar    1  UNL1       -0.2497
     35 C         144.4553  142.7595  158.4195 C.ar    1  UNL1        0.0944
     36 C         143.3599  142.0286  159.1377 C.ar    1  UNL1        0.0439
     37 C         143.3775  140.6005  158.6793 C.ar    1  UNL1        0.1194
     38 N         144.4838  140.4487  157.6777 N.ar    1  UNL1       -0.1679
     39 C         147.4708  142.8833  157.1262 C.3     1  UNL1        0.0284
     40 C         146.3075  142.0875  156.6131 C.3     1  UNL1        0.1276
@<TRIPOS>BOND
     1    39    40    1
     2    40    34    1
     3    34    35   ar
     4    35    36   ar
     5     1    36    1
     6     1    15    1
     7    15    16   ar
     8    16    17   ar
     9    17    18   ar
    10    18    19    1
    11    18    20   ar
    12     1     2    1
    13     2     3    1
    14     3    21    1
    15    21    22   ar
    16    22    23   ar
    17    23    27    1
    18    27    28   ar
    19    28    29   ar
    20    29    30   ar
    21    30    31    1
    22    30    32   ar
    23    32    33   ar
    24    23    24   ar
    25    24    25   ar
    26     3     4    1
    27     4     5    1
    28     5     6    2
    29     6     7    1
    30     7     8    2
    31     8     9    1
    32     9    10    1
    33    10    11    2
    34    11    12    1
    35    12    13    2
    36    36    37   ar
    37    37    38   ar
    38    38    34   ar
    39     6     1    1
    40    13     8    1
    41    20    15   ar
    42    25    21   ar
    43    13     5    1
    44    33    27   ar
    45     2    14    1
    46    25    26    1
@<TRIPOS>MOLECULE
*****
 40 46 0 0 0
SMALL
GASTEIGER

@<TRIPOS>ATOM
      1 C         142.5590  139.8743  159.6576 C.3     1  UNL1        0.1706
      2 N         143.2512  140.3499  158.4148 N.3     1  UNL1       -0.2797
      3 C         144.1482  141.5509  158.4688 C.3     1  UNL1        0.1167
      4 C         144.3530  142.2763  159.7657 C.3     1  UNL1        0.0511
      5 C         143.6608  141.8007  161.0085 C.2     1  UNL1       -0.0037
      6 C         142.7638  140.5997  160.9545 C.2     1  UNL1        0.0800
      7 N         142.2190  140.3658  162.3323 N.2     1  UNL1       -0.2519
      8 C         142.7792  141.4222  163.2379 C.2     1  UNL1        0.0627
      9 C         142.5931  141.6912  164.7018 C.3     1  UNL1        0.0717
     10 C         143.2981  142.8470  165.3475 C.2     1  UNL1       -0.0198
     11 C         144.1893  143.7338  164.5293 C.2     1  UNL1       -0.0042
     12 C         144.3754  143.4649  163.0655 C.2     1  UNL1        0.0006
     13 C         143.6704  142.3090  162.4198 C.2     1  UNL1        0.0111
     14 H         142.5218  140.5576  157.7327 H       1  UNL1        0.1246
     15 C         141.6909  139.0470  160.5588 C.ar    1  UNL1        0.2478
     16 N         142.1225  137.8343  161.3288 N.ar    1  UNL1       -0.1096
     17 N         140.9371  137.3251  162.0941 N.ar    1  UNL1       -0.1116
     18 C         139.7730  138.2231  161.7970 C.ar    1  UNL1        0.2267
     19 C         138.3863  138.0816  162.3514 C.3     1  UNL1        0.0967
     20 O         140.2388  139.2873  160.8481 O.2     1  UNL1       -0.4213
     21 C         144.8405  142.0265  157.2260 C.ar    1  UNL1        0.1319
     22 N         146.3007  141.8758  156.9176 N.ar    1  UNL1       -0.2282
     23 C         146.5567  142.4925  155.5744 C.ar    1  UNL1        0.1171
     24 C         145.2548  143.0243  155.0527 C.ar    1  UNL1        0.0942
     25 N         144.1941  142.7363  156.0735 N.ar    1  UNL1       -0.3385
     26 H         143.2410  142.9718  155.9999 H       1  UNL1        0.1672
     27 C         147.8821  142.5646  154.8756 C.ar    1  UNL1        0.1006
     28 C         148.0588  143.4722  153.6945 C.ar    1  UNL1        0.0230
     29 C         149.3841  143.5444  152.9957 C.ar    1  UNL1        0.0328
     30 C         150.5327  142.7090  153.4780 C.ar    1  UNL1        0.1592
     31 F         151.8581  142.7812  152.7792 F       1  UNL1       -0.2025
     32 C         150.3560  141.8014  154.6591 C.ar    1  UNL1        0.1284
     33 N         149.0307  141.7292  155.3579 N.ar    1  UNL1       -0.2399
     34 N         141.9240  136.9327  157.2063 N.ar    1  UNL1       -0.2497
     35 C         142.8076  137.6669  158.1708 C.ar    1  UNL1        0.0944
     36 C         142.0527  138.8616  158.6738 C.ar    1  UNL1        0.0439
     37 C         140.7026  138.8657  158.0201 C.ar    1  UNL1        0.1194
     38 N         140.6230  137.6735  157.1131 N.ar    1  UNL1       -0.1679
     39 C         143.3224  134.7514  157.0154 C.3     1  UNL1        0.0284
     40 C         142.2790  135.6779  156.4650 C.3     1  UNL1        0.1276
@<TRIPOS>BOND
     1    39    40    1
     2    40    34    1
     3    34    35   ar
     4    35    36   ar
     5     1    36    1
     6     1    15    1
     7    15    16   ar
     8    16    17   ar
     9    17    18   ar
    10    18    19    1
    11    18    20   ar
    12     1     2    1
    13     2     3    1
    14     3    21    1
    15    21    22   ar
    16    22    23   ar
    17    23    27    1
    18    27    28   ar
    19    28    29   ar
    20    29    30   ar
    21    30    31    1
    22    30    32   ar
    23    32    33   ar
    24    23    24   ar
    25    24    25   ar
    26     3     4    1
    27     4     5    1
    28     5     6    2
    29     6     7    1
    30     7     8    2
    31     8     9    1
    32     9    10    1
    33    10    11    2
    34    11    12    1
    35    12    13    2
    36    36    37   ar
    37    37    38   ar
    38    38    34   ar
    39     6     1    1
    40    13     8    1
    41    20    15   ar
    42    25    21   ar
    43    13     5    1
    44    33    27   ar
    45     2    14    1
    46    25    26    1
@<TRIPOS>MOLECULE
*****
 40 46 0 0 0
SMALL
GASTEIGER

@<TRIPOS>ATOM
      1 C         141.9258  143.7373  159.3808 C.3     1  UNL1        0.1706
      2 N         142.6534  143.4235  158.1071 N.3     1  UNL1       -0.2797
      3 C         144.0102  142.7858  158.1560 C.3     1  UNL1        0.1167
      4 C         144.6394  142.4618  159.4786 C.3     1  UNL1        0.0511
      5 C         143.9119  142.7756  160.7522 C.2     1  UNL1       -0.0037
      6 C         142.5551  143.4133  160.7033 C.2     1  UNL1        0.0800
      7 N         142.0819  143.6048  162.1138 N.2     1  UNL1       -0.2519
      8 C         143.1462  143.0854  163.0344 C.2     1  UNL1        0.0627
      9 C         143.2315  143.0130  164.5302 C.3     1  UNL1        0.0717
     10 C         144.4479  142.4280  165.1845 C.2     1  UNL1       -0.0198
     11 C         145.5790  141.9155  164.3430 C.2     1  UNL1       -0.0042
     12 C         145.4936  141.9880  162.8472 C.2     1  UNL1        0.0006
     13 C         144.2772  142.5730  162.1929 C.2     1  UNL1        0.0111
     14 H         142.7600  144.3044  157.6042 H       1  UNL1        0.1246
     15 C         140.8500  144.2220  160.3069 C.ar    1  UNL1        0.2478
     16 N         140.5958  145.6490  160.6927 N.ar    1  UNL1       -0.1096
     17 N         139.4281  145.6737  161.6341 N.ar    1  UNL1       -0.1116
     18 C         138.9608  144.2619  161.8299 C.ar    1  UNL1        0.2267
     19 C         137.8156  143.8242  162.6943 C.3     1  UNL1        0.0967
     20 O         139.8395  143.3647  161.0097 O.2     1  UNL1       -0.4213
     21 C         144.7378  142.4719  156.8823 C.ar    1  UNL1        0.1319
     22 N         146.2266  142.4383  156.7029 N.ar    1  UNL1       -0.2282
     23 C         146.5133  142.0822  155.2742 C.ar    1  UNL1        0.1171
     24 C         145.2016  141.8959  154.5708 C.ar    1  UNL1        0.0942
     25 N         144.1043  142.1367  155.5647 N.ar    1  UNL1       -0.3385
     26 H         143.1380  142.0840  155.3839 H       1  UNL1        0.1672
     27 C         147.8729  141.9379  154.6573 C.ar    1  UNL1        0.1006
     28 C         149.0655  141.6663  155.5256 C.ar    1  UNL1        0.0230
     29 C         150.4251  141.5219  154.9088 C.ar    1  UNL1        0.0328
     30 C         150.5922  141.6493  153.4236 C.ar    1  UNL1        0.1592
     31 F         151.9519  141.5050  152.8067 F       1  UNL1       -0.2025
     32 C         149.3997  141.9209  152.5553 C.ar    1  UNL1        0.1284
     33 N         148.0400  142.0652  153.1721 N.ar    1  UNL1       -0.2399
     34 N         139.7093  145.6607  156.8406 N.ar    1  UNL1       -0.2497
     35 C         140.8669  145.6089  157.7931 C.ar    1  UNL1        0.0944
     36 C         140.9229  144.2295  158.3799 C.ar    1  UNL1        0.0439
     37 C         139.7999  143.4289  157.7900 C.ar    1  UNL1        0.1194
     38 N         139.0498  144.3134  156.8387 N.ar    1  UNL1       -0.1679
     39 C         140.0117  147.1939  154.7651 C.3     1  UNL1        0.0284
     40 C         139.2855  146.8509  156.0319 C.3     1  UNL1        0.1276
@<TRIPOS>BOND
     1    39    40    1
     2    40    34    1
     3    34    35   ar
     4    35    36   ar
     5     1    36    1
     6     1    15    1
     7    15    16   ar
     8    16    17   ar
     9    17    18   ar
    10    18    19    1
    11    18    20   ar
    12     1     2    1
    13     2     3    1
    14     3    21    1
    15    21    22   ar
    16    22    23   ar
    17    23    27    1
    18    27    28   ar
    19    28    29   ar
    20    29    30   ar
    21    30    31    1
    22    30    32   ar
    23    32    33   ar
    24    23    24   ar
    25    24    25   ar
    26     3     4    1
    27     4     5    1
    28     5     6    2
    29     6     7    1
    30     7     8    2
    31     8     9    1
    32     9    10    1
    33    10    11    2
    34    11    12    1
    35    12    13    2
    36    36    37   ar
    37    37    38   ar
    38    38    34   ar
    39     6     1    1
    40    13     8    1
    41    20    15   ar
    42    25    21   ar
    43    13     5    1
    44    33    27   ar
    45     2    14    1
    46    25    26    1
@<TRIPOS>MOLECULE
*****
 40 46 0 0 0
SMALL
GASTEIGER

@<TRIPOS>ATOM
      1 C         140.9450  141.8608  160.8105 C.3     1  UNL1        0.1706
      2 N         140.8405  141.0694  159.5406 N.3     1  UNL1       -0.2797
      3 C         140.2466  139.6921  159.5620 C.3     1  UNL1        0.1167
      4 C         139.7573  139.1063  160.8532 C.3     1  UNL1        0.0511
      5 C         139.8618  139.8977  162.1231 C.2     1  UNL1       -0.0037
      6 C         140.4557  141.2750  162.1018 C.2     1  UNL1        0.0800
      7 N         140.4279  141.8134  163.5015 N.2     1  UNL1       -0.2519
      8 C         139.8169  140.7690  164.3880 C.2     1  UNL1        0.0627
      9 C         139.5339  140.7431  165.8608 C.3     1  UNL1        0.0717
     10 C         138.9010  139.5332  166.4817 C.2     1  UNL1       -0.0198
     11 C         138.5512  138.3492  165.6298 C.2     1  UNL1       -0.0042
     12 C         138.8341  138.3751  164.1570 C.2     1  UNL1        0.0006
     13 C         139.4670  139.5850  163.5361 C.2     1  UNL1        0.0111
     14 H         141.7873  140.9761  159.1730 H       1  UNL1        0.1246
     15 C         141.2572  142.9922  161.7447 C.ar    1  UNL1        0.2478
     16 N         140.3031  144.0642  162.1808 N.ar    1  UNL1       -0.1096
     17 N         141.0346  144.9847  163.1124 N.ar    1  UNL1       -0.1116
     18 C         142.4407  144.4813  163.2520 C.ar    1  UNL1        0.2267
     19 C         143.5197  145.1007  164.0899 C.3     1  UNL1        0.0967
     20 O         142.5782  143.2498  162.4067 O.2     1  UNL1       -0.4213
     21 C         140.1420  138.9006  158.2920 C.ar    1  UNL1        0.1319
     22 N         141.0320  137.7635  157.8861 N.ar    1  UNL1       -0.2282
     23 C         140.5692  137.2674  156.5483 C.ar    1  UNL1        0.1171
     24 C         139.3931  138.0979  156.1275 C.ar    1  UNL1        0.0942
     25 N         139.1291  139.1073  157.2051 N.ar    1  UNL1       -0.3385
     26 H         138.4163  139.7863  157.2000 H       1  UNL1        0.1672
     27 C         141.1759  136.1388  155.7683 C.ar    1  UNL1        0.1006
     28 C         140.7426  135.8861  154.3547 C.ar    1  UNL1        0.0230
     29 C         141.3492  134.7576  153.5747 C.ar    1  UNL1        0.0328
     30 C         142.3892  133.8818  154.2083 C.ar    1  UNL1        0.1592
     31 F         142.9959  132.7533  153.4283 F       1  UNL1       -0.2025
     32 C         142.8225  134.1346  155.6220 C.ar    1  UNL1        0.1284
     33 N         142.2158  135.2631  156.4020 N.ar    1  UNL1       -0.2399
     34 N         141.8058  144.7052  158.3137 N.ar    1  UNL1       -0.2497
     35 C         140.8313  143.9966  159.2072 C.ar    1  UNL1        0.0944
     36 C         141.5428  142.8395  159.8437 C.ar    1  UNL1        0.0439
     37 C         142.9570  142.8331  159.3436 C.ar    1  UNL1        0.1194
     38 N         143.1195  143.9862  158.3980 N.ar    1  UNL1       -0.1679
     39 C         140.9512  145.7660  156.1014 C.3     1  UNL1        0.0284
     40 C         141.5172  145.9197  157.4820 C.3     1  UNL1        0.1276
@<TRIPOS>BOND
     1    39    40    1
     2    40    34    1
     3    34    35   ar
     4    35    36   ar
     5     1    36    1
     6     1    15    1
     7    15    16   ar
     8    16    17   ar
     9    17    18   ar
    10    18    19    1
    11    18    20   ar
    12     1     2    1
    13     2     3    1
    14     3    21    1
    15    21    22   ar
    16    22    23   ar
    17    23    27    1
    18    27    28   ar
    19    28    29   ar
    20    29    30   ar
    21    30    31    1
    22    30    32   ar
    23    32    33   ar
    24    23    24   ar
    25    24    25   ar
    26     3     4    1
    27     4     5    1
    28     5     6    2
    29     6     7    1
    30     7     8    2
    31     8     9    1
    32     9    10    1
    33    10    11    2
    34    11    12    1
    35    12    13    2
    36    36    37   ar
    37    37    38   ar
    38    38    34   ar
    39     6     1    1
    40    13     8    1
    41    20    15   ar
    42    25    21   ar
    43    13     5    1
    44    33    27   ar
    45     2    14    1
    46    25    26    1
@<TRIPOS>MOLECULE
*****
 40 46 0 0 0
SMALL
GASTEIGER

@<TRIPOS>ATOM
      1 C         139.5445  141.1306  159.4659 C.3     1  UNL1        0.1706
      2 N         139.7703  139.7901  158.8319 N.3     1  UNL1       -0.2797
      3 C         140.2015  139.7018  157.3979 C.3     1  UNL1        0.1167
      4 C         140.4067  140.9539  156.5979 C.3     1  UNL1        0.0511
      5 C         140.1809  142.2945  157.2320 C.2     1  UNL1       -0.0037
      6 C         139.7498  142.3828  158.6660 C.2     1  UNL1        0.0800
      7 N         139.6053  143.8337  159.0179 N.2     1  UNL1       -0.2519
      8 C         139.9471  144.6421  157.8015 C.2     1  UNL1        0.0627
      9 C         139.9803  146.1215  157.5564 C.3     1  UNL1        0.0717
     10 C         140.3693  146.6496  156.2074 C.2     1  UNL1       -0.0198
     11 C         140.7251  145.6983  155.1036 C.2     1  UNL1       -0.0042
     12 C         140.6918  144.2189  155.3487 C.2     1  UNL1        0.0006
     13 C         140.3028  143.6908  156.6977 C.2     1  UNL1        0.0111
     14 H         138.8921  139.2769  158.9075 H       1  UNL1        0.1246
     15 C         139.2066  142.1605  160.5028 C.ar    1  UNL1        0.2478
     16 N         137.8355  142.6848  160.8108 N.ar    1  UNL1       -0.1096
     17 N         137.9621  143.6953  161.9121 N.ar    1  UNL1       -0.1116
     18 C         139.4116  143.7955  162.2848 C.ar    1  UNL1        0.2267
     19 C         139.9903  144.6876  163.3427 C.3     1  UNL1        0.0967
     20 O         140.1808  142.8469  161.4138 O.2     1  UNL1       -0.4213
     21 C         140.4273  138.3612  156.7638 C.ar    1  UNL1        0.1319
     22 N         141.5703  137.4325  157.0487 N.ar    1  UNL1       -0.2282
     23 C         141.3992  136.2114  156.1945 C.ar    1  UNL1        0.1171
     24 C         140.1506  136.3854  155.3818 C.ar    1  UNL1        0.0942
     25 N         139.5499  137.7141  155.7337 N.ar    1  UNL1       -0.3385
     26 H         138.7246  138.0946  155.3549 H       1  UNL1        0.1672
     27 C         142.3160  135.0246  156.1593 C.ar    1  UNL1        0.1006
     28 C         142.2924  134.0933  154.9836 C.ar    1  UNL1        0.0230
     29 C         143.2091  132.9066  154.9484 C.ar    1  UNL1        0.0328
     30 C         144.1493  132.6511  156.0888 C.ar    1  UNL1        0.1592
     31 F         145.0661  131.4643  156.0535 F       1  UNL1       -0.2025
     32 C         144.1729  133.5824  157.2644 C.ar    1  UNL1        0.1284
     33 N         143.2562  134.7691  157.2997 N.ar    1  UNL1       -0.2399
     34 N         139.4219  138.9497  162.6743 N.ar    1  UNL1       -0.2497
     35 C         140.1593  139.8560  161.7336 C.ar    1  UNL1        0.0944
     36 C         139.2219  140.2361  160.6260 C.ar    1  UNL1        0.0439
     37 C         137.9052  139.5647  160.8821 C.ar    1  UNL1        0.1194
     38 N         138.0288  138.7696  162.1481 N.ar    1  UNL1       -0.1679
     39 C         140.9341  137.1786  163.8261 C.3     1  UNL1        0.0284
     40 C         139.9797  138.3318  163.9222 C.3     1  UNL1        0.1276
@<TRIPOS>BOND
     1    39    40    1
     2    40    34    1
     3    34    35   ar
     4    35    36   ar
     5     1    36    1
     6     1    15    1
     7    15    16   ar
     8    16    17   ar
     9    17    18   ar
    10    18    19    1
    11    18    20   ar
    12     1     2    1
    13     2     3    1
    14     3    21    1
    15    21    22   ar
    16    22    23   ar
    17    23    27    1
    18    27    28   ar
    19    28    29   ar
    20    29    30   ar
    21    30    31    1
    22    30    32   ar
    23    32    33   ar
    24    23    24   ar
    25    24    25   ar
    26     3     4    1
    27     4     5    1
    28     5     6    2
    29     6     7    1
    30     7     8    2
    31     8     9    1
    32     9    10    1
    33    10    11    2
    34    11    12    1
    35    12    13    2
    36    36    37   ar
    37    37    38   ar
    38    38    34   ar
    39     6     1    1
    40    13     8    1
    41    20    15   ar
    42    25    21   ar
    43    13     5    1
    44    33    27   ar
    45     2    14    1
    46    25    26    1
@<TRIPOS>MOLECULE
*****
 40 46 0 0 0
SMALL
GASTEIGER

@<TRIPOS>ATOM
      1 C         141.0576  142.2675  159.9924 C.3     1  UNL1        0.1706
      2 N         142.0444  142.1079  158.8740 N.3     1  UNL1       -0.2797
      3 C         142.8735  140.8615  158.7776 C.3     1  UNL1        0.1167
      4 C         142.7157  139.7748  159.7994 C.3     1  UNL1        0.0511
      5 C         141.7289  139.9344  160.9178 C.2     1  UNL1       -0.0037
      6 C         140.8999  141.1808  161.0142 C.2     1  UNL1        0.0800
      7 N         140.0152  141.0568  162.2192 N.2     1  UNL1       -0.2519
      8 C         140.2975  139.7339  162.8675 C.2     1  UNL1        0.0627
      9 C         139.7269  139.0713  164.0862 C.3     1  UNL1        0.0717
     10 C         140.2156  137.7151  164.5007 C.2     1  UNL1       -0.0198
     11 C         141.2747  137.0214  163.6963 C.2     1  UNL1       -0.0042
     12 C         141.8453  137.6840  162.4775 C.2     1  UNL1        0.0006
     13 C         141.3566  139.0402  162.0631 C.2     1  UNL1        0.0111
     14 H         142.6955  142.8901  158.9420 H       1  UNL1        0.1246
     15 C         139.9977  142.8782  160.8606 C.ar    1  UNL1        0.2478
     16 N         138.5269  142.9066  160.5683 N.ar    1  UNL1       -0.1096
     17 N         137.8428  143.6136  161.7007 N.ar    1  UNL1       -0.1116
     18 C         138.8910  144.0221  162.6928 C.ar    1  UNL1        0.2267
     19 C         138.6496  144.7562  163.9785 C.3     1  UNL1        0.0967
     20 O         140.2228  143.5675  162.1737 O.2     1  UNL1       -0.4213
     21 C         143.8604  140.7019  157.6592 C.ar    1  UNL1        0.1319
     22 N         144.7877  141.7621  157.1437 N.ar    1  UNL1       -0.2282
     23 C         145.5936  141.1695  156.0260 C.ar    1  UNL1        0.1171
     24 C         145.1642  139.7430  155.8507 C.ar    1  UNL1        0.0942
     25 N         144.0930  139.4540  156.8601 N.ar    1  UNL1       -0.3385
     26 H         143.6248  138.5960  156.9775 H       1  UNL1        0.1672
     27 C         146.6444  141.8789  155.2242 C.ar    1  UNL1        0.1006
     28 C         146.2642  143.0308  154.3418 C.ar    1  UNL1        0.0230
     29 C         147.3149  143.7402  153.5401 C.ar    1  UNL1        0.0328
     30 C         148.7458  143.2977  153.6208 C.ar    1  UNL1        0.1592
     31 F         149.7966  144.0071  152.8191 F       1  UNL1       -0.2025
     32 C         149.1260  142.1458  154.5032 C.ar    1  UNL1        0.1284
     33 N         148.0754  141.4364  155.3049 N.ar    1  UNL1       -0.2399
     34 N         140.1764  145.2004  157.6077 N.ar    1  UNL1       -0.2497
     35 C         140.1619  143.7398  157.9491 C.ar    1  UNL1        0.0944
     36 C         140.8473  143.5663  159.2721 C.ar    1  UNL1        0.0439
     37 C         141.2853  144.9196  159.7483 C.ar    1  UNL1        0.1194
     38 N         140.8707  145.9295  158.7196 N.ar    1  UNL1       -0.1679
     39 C         139.1964  147.2679  156.3767 C.3     1  UNL1        0.0284
     40 C         139.5982  145.8227  156.3714 C.3     1  UNL1        0.1276
@<TRIPOS>BOND
     1    39    40    1
     2    40    34    1
     3    34    35   ar
     4    35    36   ar
     5     1    36    1
     6     1    15    1
     7    15    16   ar
     8    16    17   ar
     9    17    18   ar
    10    18    19    1
    11    18    20   ar
    12     1     2    1
    13     2     3    1
    14     3    21    1
    15    21    22   ar
    16    22    23   ar
    17    23    27    1
    18    27    28   ar
    19    28    29   ar
    20    29    30   ar
    21    30    31    1
    22    30    32   ar
    23    32    33   ar
    24    23    24   ar
    25    24    25   ar
    26     3     4    1
    27     4     5    1
    28     5     6    2
    29     6     7    1
    30     7     8    2
    31     8     9    1
    32     9    10    1
    33    10    11    2
    34    11    12    1
    35    12    13    2
    36    36    37   ar
    37    37    38   ar
    38    38    34   ar
    39     6     1    1
    40    13     8    1
    41    20    15   ar
    42    25    21   ar
    43    13     5    1
    44    33    27   ar
    45     2    14    1
    46    25    26    1
