@<TRIPOS>MOLECULE
*****
 45 50 0 0 0
SMALL
GASTEIGER

@<TRIPOS>ATOM
      1 C         138.5925  141.8195  160.0539 C.3     1  UNL1        0.0546
      2 C         138.0794  140.8462  159.0345 C.3     1  UNL1        0.0180
      3 C         139.2139  139.9482  158.6387 C.3     1  UNL1        0.0311
      4 C         139.5979  138.7917  157.7642 C.3     1  UNL1        0.0973
      5 N         141.0496  138.4953  157.9985 N.am    1  UNL1       -0.2455
      6 C         141.8479  137.4151  157.3306 C.2     1  UNL1        0.4049
      7 O         143.2987  137.2375  157.6677 O.2     1  UNL1       -0.2262
      8 C         141.5627  139.4687  159.0179 C.3     1  UNL1        0.1053
      9 C         140.4282  140.3666  159.4136 C.3     1  UNL1        0.0903
     10 C         140.0442  141.5232  160.2882 C.3     1  UNL1        0.0261
     11 C         141.6425  140.7851  160.1884 C.2     1  UNL1        0.2267
     12 O         142.8276  141.3614  159.4719 O.2     1  UNL1       -0.2748
     13 N         141.6717  140.6272  161.6799 N.am    1  UNL1       -0.2750
     14 C         142.8860  141.0456  162.4547 C.3     1  UNL1        0.1000
     15 C         142.9152  140.8877  163.9460 C.3     1  UNL1        0.0670
     16 C         141.7301  140.3114  164.6626 C.ar    1  UNL1        0.0583
     17 N         141.7593  140.1535  166.1540 N.ar    1  UNL1       -0.2484
     18 C         140.5742  139.5772  166.8705 C.ar    1  UNL1        0.1023
     19 C         139.3599  139.1587  166.0956 C.ar    1  UNL1        0.0902
     20 C         139.3307  139.3166  164.6042 C.ar    1  UNL1        0.0040
     21 C         140.5158  139.8930  163.8877 C.ar    1  UNL1        0.0113
     22 C         140.4866  140.0509  162.3964 C.3     1  UNL1        0.1213
     23 C         138.1748  138.5824  166.8121 C.3     1  UNL1        0.4200
     24 F         136.9897  138.0061  167.5286 F       1  UNL1       -0.1658
     25 F         138.0064  137.5694  165.7187 F       1  UNL1       -0.1658
     26 F         138.3432  139.5954  167.9055 F       1  UNL1       -0.1658
     27 N         137.7942  142.8997  160.7217 N.3     1  UNL1       -0.2975
     28 H         137.9494  143.7541  160.1867 H       1  UNL1        0.1232
     29 C         138.7916  144.4905  162.5174 C.3     1  UNL1        0.1591
     30 C         139.0444  144.8289  163.9567 C.3     1  UNL1        0.1729
     31 O         138.5526  143.9149  165.0396 O.3     1  UNL1       -0.3511
     32 C         137.8080  142.6625  164.6833 C.3     1  UNL1        0.1437
     33 C         137.5552  142.3241  163.2440 C.3     1  UNL1        0.0503
     34 C         138.0470  143.2381  162.1610 C.3     1  UNL1        0.0865
     35 C         140.6616  145.2252  160.8702 C.3     1  UNL1        0.1742
     36 O         139.2834  145.4045  161.4345 O.3     1  UNL1       -0.3496
     37 O         141.1955  136.5128  156.3257 O.3     1  UNL1       -0.4330
     38 C         142.0224  135.5273  155.5543 C.3     1  UNL1        0.2274
     39 C         141.7570  134.0571  155.6896 C.3     1  UNL1        0.1203
     40 N         142.7229  133.1862  156.4370 N.3     1  UNL1       -0.2653
     41 C         142.5845  131.6937  156.3819 C.3     1  UNL1        0.1047
     42 C         143.5504  130.8228  157.1293 C.3     1  UNL1        0.1595
     43 O         144.6547  131.4446  157.9319 O.3     1  UNL1       -0.3508
     44 C         144.7931  132.9371  157.9870 C.3     1  UNL1        0.1595
     45 C         143.8271  133.8080  157.2395 C.3     1  UNL1        0.1047
@<TRIPOS>BOND
     1    35    36    1
     2    36    29    1
     3    29    30    1
     4    30    31    1
     5    31    32    1
     6    32    33    1
     7    33    34    1
     8    34    27    1
     9     1    27    1
    10     1     2    1
    11     3     2    1
    12     3     4    1
    13     4     5    1
    14     5     6   am
    15     6     7    2
    16     6    37    1
    17    37    38    1
    18    38    39    1
    19    39    40    1
    20    40    41    1
    21    41    42    1
    22    42    43    1
    23    43    44    1
    24    44    45    1
    25     5     8    1
    26     8     9    1
    27     9    11    1
    28    11    12    2
    29    11    13   am
    30    13    14    1
    31    14    15    1
    32    15    16    1
    33    16    17   ar
    34    17    18   ar
    35    18    19   ar
    36    19    23    1
    37    23    24    1
    38    23    25    1
    39    23    26    1
    40    19    20   ar
    41    20    21   ar
    42    21    22    1
    43     9    10    1
    44    34    29    1
    45    10     1    1
    46     9     3    1
    47    22    13    1
    48    45    40    1
    49    21    16   ar
    50    27    28    1
@<TRIPOS>MOLECULE
*****
 45 50 0 0 0
SMALL
GASTEIGER

@<TRIPOS>ATOM
      1 C         138.7109  141.8633  159.7583 C.3     1  UNL1        0.0546
      2 C         138.2438  140.4949  159.3589 C.3     1  UNL1        0.0180
      3 C         139.3774  139.8035  158.6611 C.3     1  UNL1        0.0311
      4 C         139.7894  138.5306  157.9830 C.3     1  UNL1        0.0973
      5 N         141.2117  138.6849  157.5321 N.am    1  UNL1       -0.2455
      6 C         142.0243  137.6521  156.8088 C.2     1  UNL1        0.4049
      7 O         143.4418  137.9506  156.4195 O.2     1  UNL1       -0.2262
      8 C         141.6788  140.0532  157.9315 C.3     1  UNL1        0.1053
      9 C         140.5452  140.7446  158.6293 C.3     1  UNL1        0.0903
     10 C         140.1332  142.0175  159.3073 C.3     1  UNL1        0.0261
     11 C         141.7128  141.6856  158.5974 C.2     1  UNL1        0.2267
     12 O         141.8781  142.6372  157.4498 O.2     1  UNL1       -0.2748
     13 N         142.7152  141.6751  159.7133 N.am    1  UNL1       -0.2750
     14 C         143.8828  142.6161  159.6815 C.3     1  UNL1        0.1000
     15 C         144.8852  142.6055  160.7974 C.3     1  UNL1        0.0670
     16 C         144.7199  141.6540  161.9450 C.ar    1  UNL1        0.0583
     17 N         145.7223  141.6434  163.0609 N.ar    1  UNL1       -0.2484
     18 C         145.5570  140.6919  164.2086 C.ar    1  UNL1        0.1023
     19 C         144.3892  139.7508  164.2404 C.ar    1  UNL1        0.0902
     20 C         143.3869  139.7614  163.1246 C.ar    1  UNL1        0.0040
     21 C         143.5522  140.7129  161.9769 C.ar    1  UNL1        0.0113
     22 C         142.5499  140.7235  160.8610 C.3     1  UNL1        0.1213
     23 C         144.2239  138.7992  165.3881 C.3     1  UNL1        0.4200
     24 F         144.0586  137.8476  166.5358 F       1  UNL1       -0.1658
     25 F         142.7412  139.0247  165.3615 F       1  UNL1       -0.1658
     26 F         145.7066  138.5738  165.4147 F       1  UNL1       -0.1658
     27 N         137.8983  142.8961  160.4816 N.3     1  UNL1       -0.2975
     28 H         138.1056  143.7936  160.0436 H       1  UNL1        0.1232
     29 C         138.5883  144.3880  162.4936 C.3     1  UNL1        0.1591
     30 C         138.7603  144.5774  163.9716 C.3     1  UNL1        0.1729
     31 O         138.4143  143.4644  164.9157 O.3     1  UNL1       -0.3511
     32 C         137.8963  142.1618  164.3818 C.3     1  UNL1        0.1437
     33 C         137.7243  141.9723  162.9037 C.3     1  UNL1        0.0503
     34 C         138.0703  143.0855  161.9596 C.3     1  UNL1        0.0865
     35 C         140.3131  145.5874  160.9650 C.3     1  UNL1        0.1742
     36 O         138.9343  145.5010  161.5495 O.3     1  UNL1       -0.3496
     37 O         141.4193  136.3208  156.4747 O.3     1  UNL1       -0.4330
     38 C         142.1570  135.3636  155.5861 C.3     1  UNL1        0.2274
     39 C         141.8890  133.8909  155.6839 C.3     1  UNL1        0.1203
     40 N         142.8323  133.0057  156.4432 N.3     1  UNL1       -0.2653
     41 C         142.6562  131.5165  156.4075 C.3     1  UNL1        0.1047
     42 C         143.5995  130.6313  157.1668 C.3     1  UNL1        0.1595
     43 O         144.7189  131.2353  157.9619 O.3     1  UNL1       -0.3508
     44 C         144.8950  132.7245  157.9977 C.3     1  UNL1        0.1595
     45 C         143.9516  133.6097  157.2383 C.3     1  UNL1        0.1047
@<TRIPOS>BOND
     1    35    36    1
     2    36    29    1
     3    29    30    1
     4    30    31    1
     5    31    32    1
     6    32    33    1
     7    33    34    1
     8    34    27    1
     9     1    27    1
    10     1     2    1
    11     3     2    1
    12     3     4    1
    13     4     5    1
    14     5     6   am
    15     6     7    2
    16     6    37    1
    17    37    38    1
    18    38    39    1
    19    39    40    1
    20    40    41    1
    21    41    42    1
    22    42    43    1
    23    43    44    1
    24    44    45    1
    25     5     8    1
    26     8     9    1
    27     9    11    1
    28    11    12    2
    29    11    13   am
    30    13    14    1
    31    14    15    1
    32    15    16    1
    33    16    17   ar
    34    17    18   ar
    35    18    19   ar
    36    19    23    1
    37    23    24    1
    38    23    25    1
    39    23    26    1
    40    19    20   ar
    41    20    21   ar
    42    21    22    1
    43     9    10    1
    44    34    29    1
    45    10     1    1
    46     9     3    1
    47    22    13    1
    48    45    40    1
    49    21    16   ar
    50    27    28    1
@<TRIPOS>MOLECULE
*****
 45 50 0 0 0
SMALL
GASTEIGER

@<TRIPOS>ATOM
      1 C         141.5702  143.9753  160.4548 C.3     1  UNL1        0.0546
      2 C         140.2572  144.4657  159.9205 C.3     1  UNL1        0.0180
      3 C         139.6576  143.3712  159.0883 C.3     1  UNL1        0.0311
      4 C         138.4755  142.9978  158.2438 C.3     1  UNL1        0.0973
      5 N         138.6874  141.6002  157.7418 N.am    1  UNL1       -0.2455
      6 C         137.7506  140.8285  156.8603 C.2     1  UNL1        0.4049
      7 O         138.0985  139.4322  156.4368 O.2     1  UNL1       -0.2262
      8 C         140.0004  141.1099  158.2761 C.3     1  UNL1        0.1053
      9 C         140.6000  142.2044  159.1083 C.3     1  UNL1        0.0903
     10 C         141.7821  142.5778  159.9528 C.3     1  UNL1        0.0261
     11 C         141.5425  141.0376  159.1283 C.2     1  UNL1        0.2267
     12 O         142.5453  140.8646  158.0263 O.2     1  UNL1       -0.2748
     13 N         141.4821  140.0438  160.2503 N.am    1  UNL1       -0.2750
     14 C         142.4246  138.8771  160.2703 C.3     1  UNL1        0.1000
     15 C         142.3642  137.8834  161.3922 C.3     1  UNL1        0.0670
     16 C         141.3614  138.0564  162.4942 C.ar    1  UNL1        0.0583
     17 N         141.3010  137.0627  163.6162 N.ar    1  UNL1       -0.2484
     18 C         140.2982  137.2357  164.7182 C.ar    1  UNL1        0.1023
     19 C         139.3557  138.4025  164.6982 C.ar    1  UNL1        0.0902
     20 C         139.4161  139.3962  163.5762 C.ar    1  UNL1        0.0040
     21 C         140.4189  139.2232  162.4743 C.ar    1  UNL1        0.0113
     22 C         140.4793  140.2169  161.3523 C.3     1  UNL1        0.1213
     23 C         138.3529  138.5756  165.8002 C.3     1  UNL1        0.4200
     24 F         137.3500  138.7486  166.9022 F       1  UNL1       -0.1658
     25 F         138.4829  140.0654  165.6846 F       1  UNL1       -0.1658
     26 F         138.2229  137.0857  165.9159 F       1  UNL1       -0.1658
     27 N         142.5070  144.7470  161.3364 N.3     1  UNL1       -0.2975
     28 H         143.2476  145.1076  160.7348 H       1  UNL1        0.1232
     29 C         142.5705  144.1365  163.8609 C.3     1  UNL1        0.1591
     30 C         143.2436  143.4572  165.0165 C.3     1  UNL1        0.1729
     31 O         144.5261  142.7091  164.8033 O.3     1  UNL1       -0.3511
     32 C         145.1356  142.6403  163.4344 C.3     1  UNL1        0.1437
     33 C         144.4626  143.3196  162.2788 C.3     1  UNL1        0.0503
     34 C         143.1800  144.0677  162.4920 C.3     1  UNL1        0.0865
     35 C         140.0027  144.1330  164.2565 C.3     1  UNL1        0.1742
     36 O         141.2880  144.8846  164.0741 O.3     1  UNL1       -0.3496
     37 O         136.4661  141.4532  156.4022 O.3     1  UNL1       -0.4330
     38 C         135.2125  140.6317  156.3418 C.3     1  UNL1        0.2274
     39 C         134.0384  141.1128  155.5416 C.3     1  UNL1        0.1203
     40 N         132.6439  140.7739  155.9780 N.3     1  UNL1       -0.2653
     41 C         132.4247  139.8171  157.1122 C.3     1  UNL1        0.1047
     42 C         131.0302  139.4782  157.5486 C.3     1  UNL1        0.1595
     43 O         129.8549  140.0961  156.8508 O.3     1  UNL1       -0.3508
     44 C         130.0741  141.0529  155.7166 C.3     1  UNL1        0.1595
     45 C         131.4687  141.3918  155.2802 C.3     1  UNL1        0.1047
@<TRIPOS>BOND
     1    35    36    1
     2    36    29    1
     3    29    30    1
     4    30    31    1
     5    31    32    1
     6    32    33    1
     7    33    34    1
     8    34    27    1
     9     1    27    1
    10     1     2    1
    11     3     2    1
    12     3     4    1
    13     4     5    1
    14     5     6   am
    15     6     7    2
    16     6    37    1
    17    37    38    1
    18    38    39    1
    19    39    40    1
    20    40    41    1
    21    41    42    1
    22    42    43    1
    23    43    44    1
    24    44    45    1
    25     5     8    1
    26     8     9    1
    27     9    11    1
    28    11    12    2
    29    11    13   am
    30    13    14    1
    31    14    15    1
    32    15    16    1
    33    16    17   ar
    34    17    18   ar
    35    18    19   ar
    36    19    23    1
    37    23    24    1
    38    23    25    1
    39    23    26    1
    40    19    20   ar
    41    20    21   ar
    42    21    22    1
    43     9    10    1
    44    34    29    1
    45    10     1    1
    46     9     3    1
    47    22    13    1
    48    45    40    1
    49    21    16   ar
    50    27    28    1
@<TRIPOS>MOLECULE
*****
 45 50 0 0 0
SMALL
GASTEIGER

@<TRIPOS>ATOM
      1 C         139.3373  143.1444  159.7632 C.3     1  UNL1        0.0546
      2 C         140.0827  143.1123  158.4619 C.3     1  UNL1        0.0180
      3 C         139.9171  141.7456  157.8664 C.3     1  UNL1        0.0311
      4 C         140.2754  140.8811  156.6941 C.3     1  UNL1        0.0973
      5 N         139.6491  139.5341  156.9029 N.am    1  UNL1       -0.2455
      6 C         139.7504  138.3611  155.9735 C.2     1  UNL1        0.4049
      7 O         139.0669  137.0708  156.3171 O.2     1  UNL1       -0.2262
      8 C         138.9037  139.5662  158.2042 C.3     1  UNL1        0.1053
      9 C         139.0693  140.9329  158.7997 C.3     1  UNL1        0.0903
     10 C         138.7111  141.7975  159.9719 C.3     1  UNL1        0.0261
     11 C         138.2216  140.1204  159.7330 C.2     1  UNL1        0.2267
     12 O         136.7728  139.8890  159.4210 O.2     1  UNL1       -0.2748
     13 N         138.8228  139.5391  160.9784 N.am    1  UNL1       -0.2750
     14 C         137.9751  138.7266  161.9117 C.3     1  UNL1        0.1000
     15 C         138.5762  138.1454  163.1570 C.3     1  UNL1        0.0670
     16 C         140.0250  138.3768  163.4690 C.ar    1  UNL1        0.0583
     17 N         140.6261  137.7955  164.7144 N.ar    1  UNL1       -0.2484
     18 C         142.0750  138.0269  165.0264 C.ar    1  UNL1        0.1023
     19 C         142.9227  138.8396  164.0930 C.ar    1  UNL1        0.0902
     20 C         142.3215  139.4207  162.8477 C.ar    1  UNL1        0.0040
     21 C         140.8727  139.1893  162.5357 C.ar    1  UNL1        0.0113
     22 C         140.2716  139.7705  161.2904 C.3     1  UNL1        0.1213
     23 C         144.3715  139.0710  164.4050 C.3     1  UNL1        0.4200
     24 F         145.8203  139.3024  164.7170 F       1  UNL1       -0.1658
     25 F         144.1598  138.5311  165.7884 F       1  UNL1       -0.1658
     26 F         144.5832  139.6109  163.0216 F       1  UNL1       -0.1658
     27 N         139.2360  144.3175  160.6926 N.3     1  UNL1       -0.2975
     28 H         139.5654  145.1324  160.1751 H       1  UNL1        0.1232
     29 C         139.2638  143.9103  163.2584 C.3     1  UNL1        0.1591
     30 C         140.0024  143.8988  164.5639 C.3     1  UNL1        0.1729
     31 O         141.4516  144.2828  164.6092 O.3     1  UNL1       -0.3511
     32 C         142.1624  144.6785  163.3489 C.3     1  UNL1        0.1437
     33 C         141.4239  144.6900  162.0433 C.3     1  UNL1        0.0503
     34 C         139.9746  144.3059  161.9981 C.3     1  UNL1        0.0865
     35 C         137.4168  142.0844  163.3277 C.3     1  UNL1        0.1742
     36 O         137.8146  143.5262  163.2131 O.3     1  UNL1       -0.3496
     37 O         140.5352  138.4783  154.7006 O.3     1  UNL1       -0.4330
     38 C         141.8231  137.7261  154.5417 C.3     1  UNL1        0.2274
     39 C         142.5019  137.1387  155.7435 C.3     1  UNL1        0.1203
     40 N         142.4265  135.6629  156.0009 N.3     1  UNL1       -0.2653
     41 C         143.2775  135.0436  157.0697 C.3     1  UNL1        0.1047
     42 C         143.2021  133.5678  157.3270 C.3     1  UNL1        0.1595
     43 O         142.2757  132.7112  156.5157 O.3     1  UNL1       -0.3508
     44 C         141.4248  133.3306  155.4469 C.3     1  UNL1        0.1595
     45 C         141.5002  134.8065  155.1896 C.3     1  UNL1        0.1047
@<TRIPOS>BOND
     1    35    36    1
     2    36    29    1
     3    29    30    1
     4    30    31    1
     5    31    32    1
     6    32    33    1
     7    33    34    1
     8    34    27    1
     9     1    27    1
    10     1     2    1
    11     3     2    1
    12     3     4    1
    13     4     5    1
    14     5     6   am
    15     6     7    2
    16     6    37    1
    17    37    38    1
    18    38    39    1
    19    39    40    1
    20    40    41    1
    21    41    42    1
    22    42    43    1
    23    43    44    1
    24    44    45    1
    25     5     8    1
    26     8     9    1
    27     9    11    1
    28    11    12    2
    29    11    13   am
    30    13    14    1
    31    14    15    1
    32    15    16    1
    33    16    17   ar
    34    17    18   ar
    35    18    19   ar
    36    19    23    1
    37    23    24    1
    38    23    25    1
    39    23    26    1
    40    19    20   ar
    41    20    21   ar
    42    21    22    1
    43     9    10    1
    44    34    29    1
    45    10     1    1
    46     9     3    1
    47    22    13    1
    48    45    40    1
    49    21    16   ar
    50    27    28    1
@<TRIPOS>MOLECULE
*****
 45 50 0 0 0
SMALL
GASTEIGER

@<TRIPOS>ATOM
      1 C         138.1629  140.4914  156.6194 C.3     1  UNL1        0.0546
      2 C         137.8816  141.9250  156.9595 C.3     1  UNL1        0.0180
      3 C         139.0524  142.4564  157.7321 C.3     1  UNL1        0.0311
      4 C         139.6021  143.6709  158.4198 C.3     1  UNL1        0.0973
      5 N         140.9467  143.3162  158.9822 N.am    1  UNL1       -0.2455
      6 C         141.8513  144.2341  159.7500 C.2     1  UNL1        0.4049
      7 O         143.1737  143.7359  160.2529 O.2     1  UNL1       -0.2262
      8 C         141.2280  141.8826  158.6422 C.3     1  UNL1        0.1053
      9 C         140.0572  141.3512  157.8696 C.3     1  UNL1        0.0903
     10 C         139.5074  140.1368  157.1819 C.3     1  UNL1        0.0261
     11 C         141.0620  140.2460  158.0070 C.2     1  UNL1        0.2267
     12 O         141.9936  139.9341  156.8735 O.2     1  UNL1       -0.2748
     13 N         141.1352  139.4527  159.2780 N.am    1  UNL1       -0.2750
     14 C         142.1400  138.3475  159.4154 C.3     1  UNL1        0.1000
     15 C         142.2131  137.5542  160.6864 C.3     1  UNL1        0.0670
     16 C         141.2815  137.8662  161.8199 C.ar    1  UNL1        0.0583
     17 N         141.3547  137.0728  163.0909 N.ar    1  UNL1       -0.2484
     18 C         140.4231  137.3848  164.2244 C.ar    1  UNL1        0.1023
     19 C         139.4183  138.4900  164.0869 C.ar    1  UNL1        0.0902
     20 C         139.3451  139.2833  162.8159 C.ar    1  UNL1        0.0040
     21 C         140.2768  138.9714  161.6824 C.ar    1  UNL1        0.0113
     22 C         140.2036  139.7646  160.4115 C.3     1  UNL1        0.1213
     23 C         138.4867  138.8020  165.2204 C.3     1  UNL1        0.4200
     24 F         137.5551  139.1139  166.3539 F       1  UNL1       -0.1658
     25 F         138.5545  140.2600  164.8748 F       1  UNL1       -0.1658
     26 F         138.4189  137.3439  165.5659 F       1  UNL1       -0.1658
     27 N         137.2583  139.5735  155.8517 N.3     1  UNL1       -0.2975
     28 H         137.8435  139.0785  155.1788 H       1  UNL1        0.1232
     29 C         134.7634  140.2918  155.7548 C.3     1  UNL1        0.1591
     30 C         133.6016  140.8517  154.9888 C.3     1  UNL1        0.1729
     31 O         133.7729  141.2533  153.5538 O.3     1  UNL1       -0.3511
     32 C         135.1061  141.0951  152.8847 C.3     1  UNL1        0.1437
     33 C         136.2679  140.5351  153.6506 C.3     1  UNL1        0.0503
     34 C         136.0965  140.1335  155.0857 C.3     1  UNL1        0.0865
     35 C         133.2541  139.4256  157.6840 C.3     1  UNL1        0.1742
     36 O         134.5921  139.8901  157.1898 O.3     1  UNL1       -0.3496
     37 O         141.4333  145.6501  160.0148 O.3     1  UNL1       -0.4330
     38 C         140.3956  145.9433  161.0574 C.3     1  UNL1        0.2274
     39 C         140.5171  145.3422  162.4264 C.3     1  UNL1        0.1203
     40 N         139.4166  144.4778  162.9664 N.3     1  UNL1       -0.2653
     41 C         138.8101  143.4102  162.1047 C.3     1  UNL1        0.1047
     42 C         137.7096  142.5458  162.6446 C.3     1  UNL1        0.1595
     43 O         137.2155  142.7490  164.0463 O.3     1  UNL1       -0.3508
     44 C         137.8220  143.8165  164.9080 C.3     1  UNL1        0.1595
     45 C         138.9226  144.6810  164.3680 C.3     1  UNL1        0.1047
@<TRIPOS>BOND
     1    35    36    1
     2    36    29    1
     3    29    30    1
     4    30    31    1
     5    31    32    1
     6    32    33    1
     7    33    34    1
     8    34    27    1
     9     1    27    1
    10     1     2    1
    11     3     2    1
    12     3     4    1
    13     4     5    1
    14     5     6   am
    15     6     7    2
    16     6    37    1
    17    37    38    1
    18    38    39    1
    19    39    40    1
    20    40    41    1
    21    41    42    1
    22    42    43    1
    23    43    44    1
    24    44    45    1
    25     5     8    1
    26     8     9    1
    27     9    11    1
    28    11    12    2
    29    11    13   am
    30    13    14    1
    31    14    15    1
    32    15    16    1
    33    16    17   ar
    34    17    18   ar
    35    18    19   ar
    36    19    23    1
    37    23    24    1
    38    23    25    1
    39    23    26    1
    40    19    20   ar
    41    20    21   ar
    42    21    22    1
    43     9    10    1
    44    34    29    1
    45    10     1    1
    46     9     3    1
    47    22    13    1
    48    45    40    1
    49    21    16   ar
    50    27    28    1
@<TRIPOS>MOLECULE
*****
 45 50 0 0 0
SMALL
GASTEIGER

@<TRIPOS>ATOM
      1 C         138.1887  139.9466  159.6851 C.3     1  UNL1        0.0546
      2 C         137.8466  141.0263  158.7017 C.3     1  UNL1        0.0180
      3 C         139.0009  141.1740  157.7552 C.3     1  UNL1        0.0311
      4 C         139.5029  141.9325  156.5625 C.3     1  UNL1        0.0973
      5 N         140.8687  141.4129  156.2239 N.am    1  UNL1       -0.2455
      6 C         141.7395  141.8894  155.0993 C.2     1  UNL1        0.4049
      7 O         143.0890  141.2716  154.8821 O.2     1  UNL1       -0.2262
      8 C         141.2109  140.3333  157.2074 C.3     1  UNL1        0.1053
      9 C         140.0565  140.1856  158.1538 C.3     1  UNL1        0.0903
     10 C         139.5546  139.4270  159.3465 C.3     1  UNL1        0.0261
     11 C         141.1121  139.1972  158.5524 C.2     1  UNL1        0.2267
     12 O         141.1641  137.8496  157.8955 O.2     1  UNL1       -0.2748
     13 N         142.1157  139.5563  159.6078 N.am    1  UNL1       -0.2750
     14 C         143.1712  138.5679  160.0064 C.3     1  UNL1        0.1000
     15 C         144.1747  138.9271  161.0618 C.3     1  UNL1        0.0670
     16 C         144.1227  140.2746  161.7186 C.ar    1  UNL1        0.0583
     17 N         145.1263  140.6337  162.7741 N.ar    1  UNL1       -0.2484
     18 C         145.0743  141.9813  163.4309 C.ar    1  UNL1        0.1023
     19 C         144.0187  142.9697  163.0323 C.ar    1  UNL1        0.0902
     20 C         143.0152  142.6105  161.9769 C.ar    1  UNL1        0.0040
     21 C         143.0672  141.2630  161.3200 C.ar    1  UNL1        0.0113
     22 C         142.0637  140.9038  160.2647 C.3     1  UNL1        0.1213
     23 C         143.9667  144.3172  163.6891 C.3     1  UNL1        0.4200
     24 F         143.9147  145.6648  164.3459 F       1  UNL1       -0.1658
     25 F         144.6255  143.7474  164.9103 F       1  UNL1       -0.1658
     26 F         143.3079  144.8870  162.4679 F       1  UNL1       -0.1658
     27 N         137.3180  139.4701  160.8098 N.3     1  UNL1       -0.2975
     28 H         136.5358  140.1217  160.8730 H       1  UNL1        0.1232
     29 C         137.7615  140.4734  163.1649 C.3     1  UNL1        0.1591
     30 C         138.3277  140.3413  164.5476 C.3     1  UNL1        0.1729
     31 O         139.0167  139.0736  164.9579 O.3     1  UNL1       -0.3511
     32 C         139.1394  137.9381  163.9855 C.3     1  UNL1        0.1437
     33 C         138.5732  138.0703  162.6028 C.3     1  UNL1        0.0503
     34 C         137.8842  139.3380  162.1925 C.3     1  UNL1        0.0865
     35 C         137.8790  142.9129  162.2788 C.3     1  UNL1        0.1742
     36 O         137.0725  141.7411  162.7546 O.3     1  UNL1       -0.3496
     37 O         141.2608  142.9836  154.1918 O.3     1  UNL1       -0.4330
     38 C         142.1063  144.2039  153.9775 C.3     1  UNL1        0.2274
     39 C         142.7700  144.8711  155.1456 C.3     1  UNL1        0.1203
     40 N         142.0107  145.0765  156.4228 N.3     1  UNL1       -0.2653
     41 C         140.8041  145.9674  156.4431 C.3     1  UNL1        0.1047
     42 C         140.0449  146.1728  157.7203 C.3     1  UNL1        0.1595
     43 O         140.4922  145.4873  158.9773 O.3     1  UNL1       -0.3508
     44 C         141.6988  144.5964  158.9570 C.3     1  UNL1        0.1595
     45 C         142.4581  144.3910  157.6797 C.3     1  UNL1        0.1047
@<TRIPOS>BOND
     1    35    36    1
     2    36    29    1
     3    29    30    1
     4    30    31    1
     5    31    32    1
     6    32    33    1
     7    33    34    1
     8    34    27    1
     9     1    27    1
    10     1     2    1
    11     3     2    1
    12     3     4    1
    13     4     5    1
    14     5     6   am
    15     6     7    2
    16     6    37    1
    17    37    38    1
    18    38    39    1
    19    39    40    1
    20    40    41    1
    21    41    42    1
    22    42    43    1
    23    43    44    1
    24    44    45    1
    25     5     8    1
    26     8     9    1
    27     9    11    1
    28    11    12    2
    29    11    13   am
    30    13    14    1
    31    14    15    1
    32    15    16    1
    33    16    17   ar
    34    17    18   ar
    35    18    19   ar
    36    19    23    1
    37    23    24    1
    38    23    25    1
    39    23    26    1
    40    19    20   ar
    41    20    21   ar
    42    21    22    1
    43     9    10    1
    44    34    29    1
    45    10     1    1
    46     9     3    1
    47    22    13    1
    48    45    40    1
    49    21    16   ar
    50    27    28    1
@<TRIPOS>MOLECULE
*****
 45 50 0 0 0
SMALL
GASTEIGER

@<TRIPOS>ATOM
      1 C         139.4691  143.2690  159.7037 C.3     1  UNL1        0.0546
      2 C         140.3235  143.2359  158.4714 C.3     1  UNL1        0.0180
      3 C         140.2340  141.8594  157.8821 C.3     1  UNL1        0.0311
      4 C         140.7068  140.9881  156.7563 C.3     1  UNL1        0.0973
      5 N         140.0892  139.6321  156.9287 N.am    1  UNL1       -0.2455
      6 C         140.2907  138.4503  156.0270 C.2     1  UNL1        0.4049
      7 O         139.6035  137.1514  156.3281 O.2     1  UNL1       -0.2262
      8 C         139.2347  139.6652  158.1611 C.3     1  UNL1        0.1053
      9 C         139.3242  141.0417  158.7504 C.3     1  UNL1        0.0903
     10 C         138.8515  141.9129  159.8762 C.3     1  UNL1        0.0261
     11 C         138.4145  140.2241  159.6186 C.2     1  UNL1        0.2267
     12 O         136.9794  140.0297  159.2275 O.2     1  UNL1       -0.2748
     13 N         138.9397  139.6010  160.8779 N.am    1  UNL1       -0.2750
     14 C         138.0299  138.7834  161.7461 C.3     1  UNL1        0.1000
     15 C         138.5551  138.1603  163.0054 C.3     1  UNL1        0.0670
     16 C         139.9902  138.3548  163.3965 C.ar    1  UNL1        0.0583
     17 N         140.5154  137.7316  164.6558 N.ar    1  UNL1       -0.2484
     18 C         141.9504  137.9261  165.0469 C.ar    1  UNL1        0.1023
     19 C         142.8602  138.7437  164.1786 C.ar    1  UNL1        0.0902
     20 C         142.3349  139.3668  162.9193 C.ar    1  UNL1        0.0040
     21 C         140.8999  139.1723  162.5283 C.ar    1  UNL1        0.0113
     22 C         140.3747  139.7954  161.2690 C.3     1  UNL1        0.1213
     23 C         144.2952  138.9382  164.5697 C.3     1  UNL1        0.4200
     24 F         145.7302  139.1326  164.9607 F       1  UNL1       -0.1658
     25 F         144.6092  139.4124  163.1816 F       1  UNL1       -0.1658
     26 F         143.9812  138.4640  165.9577 F       1  UNL1       -0.1658
     27 N         139.2676  144.4507  160.6055 N.3     1  UNL1       -0.2975
     28 H         139.9555  145.1518  160.3303 H       1  UNL1        0.1232
     29 C         140.7264  144.4003  162.7547 C.3     1  UNL1        0.1591
     30 C         140.8443  144.2381  164.2412 C.3     1  UNL1        0.1729
     31 O         139.6212  143.9641  165.0651 O.3     1  UNL1       -0.3511
     32 C         138.2801  143.8523  164.4024 C.3     1  UNL1        0.1437
     33 C         138.1622  144.0145  162.9159 C.3     1  UNL1        0.0503
     34 C         139.3854  144.2885  162.0920 C.3     1  UNL1        0.0865
     35 C         143.1860  143.8477  162.1260 C.3     1  UNL1        0.1742
     36 O         141.9496  144.6743  161.9308 O.3     1  UNL1       -0.3496
     37 O         141.1793  138.5676  154.8243 O.3     1  UNL1       -0.4330
     38 C         142.6379  138.2356  154.9344 C.3     1  UNL1        0.2274
     39 C         143.2498  137.9810  156.2801 C.3     1  UNL1        0.1203
     40 N         143.6185  139.1335  157.1665 N.3     1  UNL1       -0.2653
     41 C         144.3876  140.2936  156.6073 C.3     1  UNL1        0.1047
     42 C         144.7564  141.4461  157.4936 C.3     1  UNL1        0.1595
     43 O         144.3561  141.4386  158.9393 O.3     1  UNL1       -0.3508
     44 C         143.5870  140.2785  159.4985 C.3     1  UNL1        0.1595
     45 C         143.2182  139.1259  158.6120 C.3     1  UNL1        0.1047
@<TRIPOS>BOND
     1    35    36    1
     2    36    29    1
     3    29    30    1
     4    30    31    1
     5    31    32    1
     6    32    33    1
     7    33    34    1
     8    34    27    1
     9     1    27    1
    10     1     2    1
    11     3     2    1
    12     3     4    1
    13     4     5    1
    14     5     6   am
    15     6     7    2
    16     6    37    1
    17    37    38    1
    18    38    39    1
    19    39    40    1
    20    40    41    1
    21    41    42    1
    22    42    43    1
    23    43    44    1
    24    44    45    1
    25     5     8    1
    26     8     9    1
    27     9    11    1
    28    11    12    2
    29    11    13   am
    30    13    14    1
    31    14    15    1
    32    15    16    1
    33    16    17   ar
    34    17    18   ar
    35    18    19   ar
    36    19    23    1
    37    23    24    1
    38    23    25    1
    39    23    26    1
    40    19    20   ar
    41    20    21   ar
    42    21    22    1
    43     9    10    1
    44    34    29    1
    45    10     1    1
    46     9     3    1
    47    22    13    1
    48    45    40    1
    49    21    16   ar
    50    27    28    1
@<TRIPOS>MOLECULE
*****
 45 50 0 0 0
SMALL
GASTEIGER

@<TRIPOS>ATOM
      1 C         142.4903  138.3795  158.0005 C.3     1  UNL1        0.0546
      2 C         142.7551  139.8022  157.6057 C.3     1  UNL1        0.0180
      3 C         141.7336  140.6685  158.2811 C.3     1  UNL1        0.0311
      4 C         141.2660  142.0831  158.4545 C.3     1  UNL1        0.0973
      5 N         140.0808  142.0701  159.3738 N.am    1  UNL1       -0.2455
      6 C         139.2978  143.2693  159.8200 C.2     1  UNL1        0.4049
      7 O         138.1303  143.1005  160.7465 O.2     1  UNL1       -0.2262
      8 C         139.8159  140.6474  159.7686 C.3     1  UNL1        0.1053
      9 C         140.8374  139.7812  159.0933 C.3     1  UNL1        0.0903
     10 C         141.3051  138.3665  158.9199 C.3     1  UNL1        0.0261
     11 C         139.9413  138.8939  159.9054 C.2     1  UNL1        0.2267
     12 O         138.9915  137.9573  159.2194 O.2     1  UNL1       -0.2748
     13 N         139.9950  138.9431  161.4037 N.am    1  UNL1       -0.2750
     14 C         139.0988  138.0559  162.2159 C.3     1  UNL1        0.1000
     15 C         139.1525  138.1052  163.7141 C.3     1  UNL1        0.0670
     16 C         140.1023  139.0418  164.4001 C.ar    1  UNL1        0.0583
     17 N         140.1560  139.0910  165.8984 N.ar    1  UNL1       -0.2484
     18 C         141.1058  140.0276  166.5844 C.ar    1  UNL1        0.1023
     19 C         142.0019  140.9149  165.7722 C.ar    1  UNL1        0.0902
     20 C         141.9483  140.8656  164.2740 C.ar    1  UNL1        0.0040
     21 C         140.9985  139.9290  163.5880 C.ar    1  UNL1        0.0113
     22 C         140.9448  139.8797  162.0898 C.3     1  UNL1        0.1213
     23 C         142.9518  141.8515  166.4582 C.3     1  UNL1        0.4200
     24 F         143.9016  142.7881  167.1443 F       1  UNL1       -0.1658
     25 F         144.0441  141.4308  165.5203 F       1  UNL1       -0.1658
     26 F         141.8594  142.2722  167.3962 F       1  UNL1       -0.1658
     27 N         143.2732  137.1803  157.5543 N.3     1  UNL1       -0.2975
     28 H         144.1124  137.5315  157.0930 H       1  UNL1        0.1232
     29 C         142.8374  134.7144  156.8621 C.3     1  UNL1        0.1591
     30 C         142.2158  133.7173  155.9297 C.3     1  UNL1        0.1729
     31 O         141.4082  134.1892  154.7570 O.3     1  UNL1       -0.3511
     32 C         141.2222  135.6582  154.5168 C.3     1  UNL1        0.1437
     33 C         141.8439  136.6552  155.4492 C.3     1  UNL1        0.0503
     34 C         142.6515  136.1833  156.6219 C.3     1  UNL1        0.0865
     35 C         144.5805  133.0799  157.8820 C.3     1  UNL1        0.1742
     36 O         143.6450  134.2425  158.0347 O.3     1  UNL1       -0.3496
     37 O         139.6825  144.6373  159.3398 O.3     1  UNL1       -0.4330
     38 C         140.6318  145.4750  160.1441 C.3     1  UNL1        0.2274
     39 C         140.7451  145.2675  161.6254 C.3     1  UNL1        0.1203
     40 N         142.0039  144.6974  162.2088 N.3     1  UNL1       -0.2653
     41 C         142.4514  145.1140  163.5785 C.3     1  UNL1        0.1047
     42 C         143.7102  144.5439  164.1619 C.3     1  UNL1        0.1595
     43 O         144.5215  143.5572  163.3756 O.3     1  UNL1       -0.3508
     44 C         144.0740  143.1407  162.0058 C.3     1  UNL1        0.1595
     45 C         142.8151  143.7108  161.4224 C.3     1  UNL1        0.1047
@<TRIPOS>BOND
     1    35    36    1
     2    36    29    1
     3    29    30    1
     4    30    31    1
     5    31    32    1
     6    32    33    1
     7    33    34    1
     8    34    27    1
     9     1    27    1
    10     1     2    1
    11     3     2    1
    12     3     4    1
    13     4     5    1
    14     5     6   am
    15     6     7    2
    16     6    37    1
    17    37    38    1
    18    38    39    1
    19    39    40    1
    20    40    41    1
    21    41    42    1
    22    42    43    1
    23    43    44    1
    24    44    45    1
    25     5     8    1
    26     8     9    1
    27     9    11    1
    28    11    12    2
    29    11    13   am
    30    13    14    1
    31    14    15    1
    32    15    16    1
    33    16    17   ar
    34    17    18   ar
    35    18    19   ar
    36    19    23    1
    37    23    24    1
    38    23    25    1
    39    23    26    1
    40    19    20   ar
    41    20    21   ar
    42    21    22    1
    43     9    10    1
    44    34    29    1
    45    10     1    1
    46     9     3    1
    47    22    13    1
    48    45    40    1
    49    21    16   ar
    50    27    28    1
@<TRIPOS>MOLECULE
*****
 45 50 0 0 0
SMALL
GASTEIGER

@<TRIPOS>ATOM
      1 C         140.2827  138.1603  156.7457 C.3     1  UNL1        0.0546
      2 C         139.5365  139.4313  156.4669 C.3     1  UNL1        0.0180
      3 C         140.2850  140.5595  157.1127 C.3     1  UNL1        0.0311
      4 C         140.2864  142.0422  157.3396 C.3     1  UNL1        0.0973
      5 N         141.4961  142.3848  158.1577 N.am    1  UNL1       -0.2455
      6 C         141.8903  143.7575  158.6165 C.2     1  UNL1        0.4049
      7 O         143.1343  143.9469  159.4330 O.2     1  UNL1       -0.2262
      8 C         142.2423  141.1138  158.4365 C.3     1  UNL1        0.1053
      9 C         141.4938  139.9857  157.7907 C.3     1  UNL1        0.0903
     10 C         141.4924  138.5030  157.5638 C.3     1  UNL1        0.0261
     11 C         142.7026  139.4119  158.4686 C.2     1  UNL1        0.2267
     12 O         143.9515  139.1504  157.6799 O.2     1  UNL1       -0.2748
     13 N         142.6626  139.0996  159.9352 N.am    1  UNL1       -0.2750
     14 C         143.8713  138.5258  160.6131 C.3     1  UNL1        0.1000
     15 C         143.8313  138.2136  162.0796 C.3     1  UNL1        0.0670
     16 C         142.5824  138.4750  162.8683 C.ar    1  UNL1        0.0583
     17 N         142.5424  138.1627  164.3349 N.ar    1  UNL1       -0.2484
     18 C         141.2935  138.4242  165.1236 C.ar    1  UNL1        0.1023
     19 C         140.0847  138.9980  164.4456 C.ar    1  UNL1        0.0902
     20 C         140.1248  139.3103  162.9790 C.ar    1  UNL1        0.0040
     21 C         141.3736  139.0488  162.1904 C.ar    1  UNL1        0.0113
     22 C         141.4137  139.3611  160.7238 C.3     1  UNL1        0.1213
     23 C         138.8358  139.2595  165.2342 C.3     1  UNL1        0.4200
     24 F         137.5869  139.5210  166.0229 F       1  UNL1       -0.1658
     25 F         139.5978  139.0524  166.5096 F       1  UNL1       -0.1658
     26 F         138.0738  139.4666  163.9589 F       1  UNL1       -0.1658
     27 N         139.8885  136.7876  156.2869 N.3     1  UNL1       -0.2975
     28 H         140.0581  136.1557  157.0693 H       1  UNL1        0.1232
     29 C         141.7850  135.3423  155.2553 C.3     1  UNL1        0.1591
     30 C         142.4479  134.7334  154.0554 C.3     1  UNL1        0.1729
     31 O         141.8772  134.9610  152.6870 O.3     1  UNL1       -0.3511
     32 C         140.6435  135.7975  152.5186 C.3     1  UNL1        0.1437
     33 C         139.9806  136.4064  153.7185 C.3     1  UNL1        0.0503
     34 C         140.5514  136.1788  155.0869 C.3     1  UNL1        0.0865
     35 C         143.0491  133.8231  156.9418 C.3     1  UNL1        0.1742
     36 O         142.3558  135.1147  156.6237 O.3     1  UNL1       -0.3496
     37 O         141.0406  144.9407  158.2588 O.3     1  UNL1       -0.4330
     38 C         140.1811  145.5898  159.3028 C.3     1  UNL1        0.2274
     39 C         140.3472  145.2200  160.7470 C.3     1  UNL1        0.1203
     40 N         139.3465  144.3212  161.4108 N.3     1  UNL1       -0.2653
     41 C         139.0511  142.9699  160.8306 C.3     1  UNL1        0.1047
     42 C         138.0505  142.0710  161.4944 C.3     1  UNL1        0.1595
     43 O         137.3452  142.5234  162.7386 O.3     1  UNL1       -0.3508
     44 C         137.6406  143.8747  163.3189 C.3     1  UNL1        0.1595
     45 C         138.6413  144.7736  162.6550 C.3     1  UNL1        0.1047
@<TRIPOS>BOND
     1    35    36    1
     2    36    29    1
     3    29    30    1
     4    30    31    1
     5    31    32    1
     6    32    33    1
     7    33    34    1
     8    34    27    1
     9     1    27    1
    10     1     2    1
    11     3     2    1
    12     3     4    1
    13     4     5    1
    14     5     6   am
    15     6     7    2
    16     6    37    1
    17    37    38    1
    18    38    39    1
    19    39    40    1
    20    40    41    1
    21    41    42    1
    22    42    43    1
    23    43    44    1
    24    44    45    1
    25     5     8    1
    26     8     9    1
    27     9    11    1
    28    11    12    2
    29    11    13   am
    30    13    14    1
    31    14    15    1
    32    15    16    1
    33    16    17   ar
    34    17    18   ar
    35    18    19   ar
    36    19    23    1
    37    23    24    1
    38    23    25    1
    39    23    26    1
    40    19    20   ar
    41    20    21   ar
    42    21    22    1
    43     9    10    1
    44    34    29    1
    45    10     1    1
    46     9     3    1
    47    22    13    1
    48    45    40    1
    49    21    16   ar
    50    27    28    1
