@<TRIPOS>MOLECULE
*****
 38 42 0 0 0
SMALL
GASTEIGER

@<TRIPOS>ATOM
      1 C         137.9103  140.4841  163.2280 C.ar    1  UNL1        0.1533
      2 C         138.5690  140.6643  164.5636 C.ar    1  UNL1        0.0527
      3 C         139.3192  139.5261  165.1896 C.ar    1  UNL1        0.0510
      4 C         139.4107  138.2078  164.4800 C.ar    1  UNL1        0.0160
      5 C         138.7520  138.0276  163.1445 C.ar    1  UNL1        0.0190
      6 C         138.0018  139.1657  162.5184 C.ar    1  UNL1        0.0850
      7 N         139.9778  139.7064  166.5251 N.pl3   1  UNL1       -0.3046
      8 C         139.1402  139.8463  167.7616 C.3     1  UNL1        0.1081
      9 C         139.7988  140.0267  169.0972 C.3     1  UNL1        0.0939
     10 N         141.2949  140.0670  169.1962 N.3     1  UNL1       -0.2683
     11 C         142.1325  139.9271  167.9598 C.3     1  UNL1        0.0939
     12 C         141.4740  139.7468  166.6242 C.3     1  UNL1        0.1081
     13 C         141.9536  140.2473  170.5318 C.3     1  UNL1        0.0978
     14 C         142.1460  141.6249  171.0932 C.3     1  UNL1        0.1681
     15 S         141.3926  142.7840  170.5111 S.O2    1  UNL1       -0.0068
     16 C         140.6391  143.9431  169.9291 C.3     1  UNL1        0.1761
     17 O         140.2393  142.4933  171.4252 O.2     1  UNL1       -0.1729
     18 O         142.5458  143.0747  169.5971 O.2     1  UNL1       -0.1729
     19 C         137.9014  142.8331  162.1181 C.3     1  UNL1        0.2525
     20 O         137.1601  141.6222  162.6021 O.3     1  UNL1       -0.4701
     21 N         137.3431  138.9854  161.1829 N.pl3   1  UNL1       -0.2802
     22 H         136.4292  138.6233  161.1297 H       1  UNL1        0.1552
     23 C         138.0769  139.3569  159.9285 C.ar    1  UNL1        0.2208
     24 N         139.4082  138.7354  159.6264 N.ar    1  UNL1       -0.2111
     25 C         140.1419  139.1069  158.3719 C.ar    1  UNL1        0.1147
     26 C         139.5444  140.0999  157.4196 C.ar    1  UNL1        0.0960
     27 CL        140.2781  140.4714  156.1652 Cl      1  UNL1       -0.0790
     28 C         138.2130  140.7215  157.7218 C.ar    1  UNL1        0.1138
     29 N         137.4793  140.3499  158.9762 N.ar    1  UNL1       -0.2111
     30 C         137.6154  141.7145  156.7695 C.ar    1  UNL1        0.1031
     31 C         136.3724  141.5160  155.9538 C.ar    1  UNL1        0.1196
     32 N         136.1447  142.7592  155.1459 N.ar    1  UNL1       -0.2248
     33 C         137.2471  143.7260  155.4624 C.ar    1  UNL1        0.1479
     34 C         137.5406  145.1108  154.9664 C.ar    1  UNL1        0.0374
     35 C         138.7431  145.8500  155.4739 C.ar    1  UNL1        0.0046
     36 C         139.6521  145.2043  156.4774 C.ar    1  UNL1        0.0191
     37 C         139.3585  143.8195  156.9733 C.ar    1  UNL1        0.0815
     38 N         138.1560  143.0803  156.4658 N.ar    1  UNL1       -0.2874
@<TRIPOS>BOND
     1    19    20    1
     2    20     1    1
     3     1     2   ar
     4     2     3   ar
     5     3     7    1
     6     7     8    1
     7     8     9    1
     8     9    10    1
     9    10    13    1
    10    13    14    1
    11    14    15    1
    12    15    16    1
    13    15    17    2
    14    15    18    2
    15    10    11    1
    16    11    12    1
    17     3     4   ar
    18     4     5   ar
    19     5     6   ar
    20     6    21    1
    21    21    23    1
    22    23    24   ar
    23    24    25   ar
    24    25    26   ar
    25    26    27    1
    26    26    28   ar
    27    28    30    1
    28    30    31   ar
    29    31    32   ar
    30    32    33   ar
    31    33    34   ar
    32    34    35   ar
    33    35    36   ar
    34    36    37   ar
    35    37    38   ar
    36    28    29   ar
    37     6     1   ar
    38    29    23   ar
    39    12     7    1
    40    38    30   ar
    41    38    33   ar
    42    21    22    1
@<TRIPOS>MOLECULE
*****
 38 42 0 0 0
SMALL
GASTEIGER

@<TRIPOS>ATOM
      1 C         137.9186  140.2832  163.2248 C.ar    1  UNL1        0.1533
      2 C         138.5742  140.4934  164.5575 C.ar    1  UNL1        0.0527
      3 C         139.3737  139.3889  165.1827 C.ar    1  UNL1        0.0510
      4 C         139.5176  138.0741  164.4751 C.ar    1  UNL1        0.0160
      5 C         138.8621  137.8639  163.1424 C.ar    1  UNL1        0.0190
      6 C         138.0625  138.9684  162.5172 C.ar    1  UNL1        0.0850
      7 N         140.0292  139.5992  166.5153 N.pl3   1  UNL1       -0.3046
      8 C         141.5252  139.5921  166.6246 C.3     1  UNL1        0.1081
      9 C         142.1809  139.8024  167.9574 C.3     1  UNL1        0.0939
     10 N         141.3404  140.0197  169.1806 N.3     1  UNL1       -0.2683
     11 C         139.8444  140.0268  169.0712 C.3     1  UNL1        0.0939
     12 C         139.1888  139.8165  167.7386 C.3     1  UNL1        0.1081
     13 C         141.9960  140.2301  170.5133 C.3     1  UNL1        0.0978
     14 C         142.2562  141.6214  171.0098 C.3     1  UNL1        0.1681
     15 S         141.4524  142.7704  170.4772 S.O2    1  UNL1       -0.0068
     16 C         140.6486  143.9194  169.9446 C.3     1  UNL1        0.1761
     17 O         140.3550  142.4533  171.4495 O.2     1  UNL1       -0.1729
     18 O         142.5498  143.0874  169.5050 O.2     1  UNL1       -0.1729
     19 C         137.7772  142.6937  162.2659 C.3     1  UNL1        0.2525
     20 O         137.1191  141.3877  162.5997 O.3     1  UNL1       -0.4701
     21 N         137.4070  138.7581  161.1846 N.pl3   1  UNL1       -0.2802
     22 H         136.5733  138.2382  161.1227 H       1  UNL1        0.1552
     23 C         138.0218  139.3398  159.9462 C.ar    1  UNL1        0.2208
     24 N         137.2833  140.3831  159.1612 N.ar    1  UNL1       -0.2111
     25 C         137.8980  140.9648  157.9228 C.ar    1  UNL1        0.1147
     26 C         139.2513  140.5032  157.4693 C.ar    1  UNL1        0.0960
     27 CL        139.8660  141.0849  156.2309 Cl      1  UNL1       -0.0790
     28 C         139.9898  139.4599  158.2543 C.ar    1  UNL1        0.1138
     29 N         139.3750  138.8782  159.4927 N.ar    1  UNL1       -0.2111
     30 C         141.3431  138.9983  157.8008 C.ar    1  UNL1        0.1031
     31 C         142.6564  139.6232  158.1676 C.ar    1  UNL1        0.1196
     32 N         143.7455  138.8419  157.4944 N.ar    1  UNL1       -0.2248
     33 C         143.1053  137.7340  156.7116 C.ar    1  UNL1        0.1479
     34 C         143.6826  136.6497  155.8508 C.ar    1  UNL1        0.0374
     35 C         142.7750  135.6620  155.1794 C.ar    1  UNL1        0.0046
     36 C         141.2902  135.7587  155.3688 C.ar    1  UNL1        0.0191
     37 C         140.7129  136.8430  156.2296 C.ar    1  UNL1        0.0815
     38 N         141.6205  137.8307  156.9010 N.ar    1  UNL1       -0.2874
@<TRIPOS>BOND
     1    19    20    1
     2    20     1    1
     3     1     2   ar
     4     2     3   ar
     5     3     7    1
     6     7     8    1
     7     8     9    1
     8     9    10    1
     9    10    13    1
    10    13    14    1
    11    14    15    1
    12    15    16    1
    13    15    17    2
    14    15    18    2
    15    10    11    1
    16    11    12    1
    17     3     4   ar
    18     4     5   ar
    19     5     6   ar
    20     6    21    1
    21    21    23    1
    22    23    24   ar
    23    24    25   ar
    24    25    26   ar
    25    26    27    1
    26    26    28   ar
    27    28    30    1
    28    30    31   ar
    29    31    32   ar
    30    32    33   ar
    31    33    34   ar
    32    34    35   ar
    33    35    36   ar
    34    36    37   ar
    35    37    38   ar
    36    28    29   ar
    37     6     1   ar
    38    29    23   ar
    39    12     7    1
    40    38    30   ar
    41    38    33   ar
    42    21    22    1
@<TRIPOS>MOLECULE
*****
 38 42 0 0 0
SMALL
GASTEIGER

@<TRIPOS>ATOM
      1 C         137.8801  140.5997  163.0598 C.ar    1  UNL1        0.1533
      2 C         138.4778  140.7165  164.4307 C.ar    1  UNL1        0.0527
      3 C         139.2325  139.5621  165.0207 C.ar    1  UNL1        0.0510
      4 C         139.3894  138.2910  164.2399 C.ar    1  UNL1        0.0160
      5 C         138.7917  138.1743  162.8691 C.ar    1  UNL1        0.0190
      6 C         138.0370  139.3286  162.2790 C.ar    1  UNL1        0.0850
      7 N         139.8301  139.6790  166.3915 N.pl3   1  UNL1       -0.3046
      8 C         138.9388  139.8439  167.5866 C.3     1  UNL1        0.1081
      9 C         139.5365  139.9608  168.9575 C.3     1  UNL1        0.0939
     10 N         141.0253  139.9127  169.1331 N.3     1  UNL1       -0.2683
     11 C         141.9166  139.7478  167.9380 C.3     1  UNL1        0.0939
     12 C         141.3190  139.6309  166.5672 C.3     1  UNL1        0.1081
     13 C         141.6231  140.0296  170.5040 C.3     1  UNL1        0.0978
     14 C         142.0070  141.3760  171.0424 C.3     1  UNL1        0.1681
     15 S         141.3471  142.6130  170.5092 S.O2    1  UNL1       -0.0068
     16 C         140.6872  143.8499  169.9759 C.3     1  UNL1        0.1761
     17 O         142.4772  142.7982  169.5404 O.2     1  UNL1       -0.1729
     18 O         140.2169  142.4277  171.4779 O.2     1  UNL1       -0.1729
     19 C         137.8381  143.0377  162.1632 C.3     1  UNL1        0.2525
     20 O         137.1255  141.7540  162.4699 O.3     1  UNL1       -0.4701
     21 N         137.4393  139.2117  160.9083 N.pl3   1  UNL1       -0.2802
     22 H         136.6870  138.5967  160.7501 H       1  UNL1        0.1552
     23 C         137.9878  140.0318  159.7784 C.ar    1  UNL1        0.2208
     24 N         137.1901  140.2031  158.5198 N.ar    1  UNL1       -0.2111
     25 C         137.7386  141.0232  157.3900 C.ar    1  UNL1        0.1147
     26 C         139.0849  141.6721  157.5188 C.ar    1  UNL1        0.0960
     27 CL        139.6334  142.4922  156.3890 Cl      1  UNL1       -0.0790
     28 C         139.8826  141.5008  158.7775 C.ar    1  UNL1        0.1138
     29 N         139.3341  140.6807  159.9073 N.ar    1  UNL1       -0.2111
     30 C         141.2289  142.1497  158.9064 C.ar    1  UNL1        0.1031
     31 C         141.5531  143.3481  159.7482 C.ar    1  UNL1        0.1196
     32 N         143.0118  143.6531  159.5781 N.ar    1  UNL1       -0.2248
     33 C         143.5892  142.6432  158.6311 C.ar    1  UNL1        0.1479
     34 C         144.9760  142.4496  158.0932 C.ar    1  UNL1        0.0374
     35 C         145.2608  141.3269  157.1402 C.ar    1  UNL1        0.0046
     36 C         144.1588  140.3977  156.7250 C.ar    1  UNL1        0.0191
     37 C         142.7721  140.5913  157.2629 C.ar    1  UNL1        0.0815
     38 N         142.4873  141.7140  158.2160 N.ar    1  UNL1       -0.2874
@<TRIPOS>BOND
     1    19    20    1
     2    20     1    1
     3     1     2   ar
     4     2     3   ar
     5     3     7    1
     6     7     8    1
     7     8     9    1
     8     9    10    1
     9    10    13    1
    10    13    14    1
    11    14    15    1
    12    15    16    1
    13    15    17    2
    14    15    18    2
    15    10    11    1
    16    11    12    1
    17     3     4   ar
    18     4     5   ar
    19     5     6   ar
    20     6    21    1
    21    21    23    1
    22    23    24   ar
    23    24    25   ar
    24    25    26   ar
    25    26    27    1
    26    26    28   ar
    27    28    30    1
    28    30    31   ar
    29    31    32   ar
    30    32    33   ar
    31    33    34   ar
    32    34    35   ar
    33    35    36   ar
    34    36    37   ar
    35    37    38   ar
    36    28    29   ar
    37     6     1   ar
    38    29    23   ar
    39    12     7    1
    40    38    30   ar
    41    38    33   ar
    42    21    22    1
@<TRIPOS>MOLECULE
*****
 38 42 0 0 0
SMALL
GASTEIGER

@<TRIPOS>ATOM
      1 C         142.0421  138.3893  162.4652 C.ar    1  UNL1        0.1533
      2 C         141.5871  138.5697  163.8832 C.ar    1  UNL1        0.0527
      3 C         142.4647  139.2851  164.8671 C.ar    1  UNL1        0.0510
      4 C         143.7971  139.8202  164.4331 C.ar    1  UNL1        0.0160
      5 C         144.2519  139.6398  163.0152 C.ar    1  UNL1        0.0190
      6 C         143.3745  138.9244  162.0312 C.ar    1  UNL1        0.0850
      7 N         142.0097  139.4655  166.2850 N.pl3   1  UNL1       -0.3046
      8 C         142.9554  139.1913  167.4167 C.3     1  UNL1        0.1081
      9 C         142.5004  139.3717  168.8347 C.3     1  UNL1        0.0939
     10 N         141.1000  139.8261  169.1209 N.3     1  UNL1       -0.2683
     11 C         140.1543  140.1002  167.9892 C.3     1  UNL1        0.0939
     12 C         140.6092  139.9199  166.5713 C.3     1  UNL1        0.1081
     13 C         140.6450  140.0065  170.5388 C.3     1  UNL1        0.0978
     14 C         140.9358  141.2877  171.2625 C.3     1  UNL1        0.1681
     15 S         140.6624  142.6038  170.5968 S.O2    1  UNL1       -0.0068
     16 C         140.3890  143.9199  169.9312 C.3     1  UNL1        0.1761
     17 O         142.1349  142.8854  170.5487 O.2     1  UNL1       -0.1729
     18 O         139.1899  142.3223  170.6450 O.2     1  UNL1       -0.1729
     19 C         139.9165  138.3321  160.9723 C.3     1  UNL1        0.2525
     20 O         141.1645  137.6738  161.4813 O.3     1  UNL1       -0.4701
     21 N         143.8294  138.7440  160.6133 N.pl3   1  UNL1       -0.2802
     22 H         144.2528  137.8996  160.3358 H       1  UNL1        0.1552
     23 C         143.6394  139.8502  159.6182 C.ar    1  UNL1        0.2208
     24 N         144.4221  139.8505  158.3386 N.ar    1  UNL1       -0.2111
     25 C         144.2320  140.9566  157.3434 C.ar    1  UNL1        0.1147
     26 C         143.2593  142.0624  157.6279 C.ar    1  UNL1        0.0960
     27 CL        143.0692  143.1685  156.6327 Cl      1  UNL1       -0.0790
     28 C         142.4765  142.0621  158.9075 C.ar    1  UNL1        0.1138
     29 N         142.6666  140.9560  159.9026 N.ar    1  UNL1       -0.2111
     30 C         141.5037  143.1679  159.1920 C.ar    1  UNL1        0.1031
     31 C         140.4525  143.6807  158.2528 C.ar    1  UNL1        0.1196
     32 N         139.7105  144.7848  158.9459 N.ar    1  UNL1       -0.2248
     33 C         140.3032  144.9544  160.3134 C.ar    1  UNL1        0.1479
     34 C         139.9769  145.8897  161.4398 C.ar    1  UNL1        0.0374
     35 C         140.7588  145.8256  162.7182 C.ar    1  UNL1        0.0046
     36 C         141.8671  144.8263  162.8702 C.ar    1  UNL1        0.0191
     37 C         142.1934  143.8911  161.7439 C.ar    1  UNL1        0.0815
     38 N         141.4115  143.9551  160.4655 N.ar    1  UNL1       -0.2874
@<TRIPOS>BOND
     1    19    20    1
     2    20     1    1
     3     1     2   ar
     4     2     3   ar
     5     3     7    1
     6     7     8    1
     7     8     9    1
     8     9    10    1
     9    10    13    1
    10    13    14    1
    11    14    15    1
    12    15    16    1
    13    15    17    2
    14    15    18    2
    15    10    11    1
    16    11    12    1
    17     3     4   ar
    18     4     5   ar
    19     5     6   ar
    20     6    21    1
    21    21    23    1
    22    23    24   ar
    23    24    25   ar
    24    25    26   ar
    25    26    27    1
    26    26    28   ar
    27    28    30    1
    28    30    31   ar
    29    31    32   ar
    30    32    33   ar
    31    33    34   ar
    32    34    35   ar
    33    35    36   ar
    34    36    37   ar
    35    37    38   ar
    36    28    29   ar
    37     6     1   ar
    38    29    23   ar
    39    12     7    1
    40    38    30   ar
    41    38    33   ar
    42    21    22    1
@<TRIPOS>MOLECULE
*****
 38 42 0 0 0
SMALL
GASTEIGER

@<TRIPOS>ATOM
      1 C         143.7434  142.3303  159.7865 C.ar    1  UNL1        0.1533
      2 C         143.9489  141.0104  159.1039 C.ar    1  UNL1        0.0527
      3 C         142.9719  140.5425  158.0663 C.ar    1  UNL1        0.0510
      4 C         141.7896  141.3945  157.7111 C.ar    1  UNL1        0.0160
      5 C         141.5842  142.7143  158.3936 C.ar    1  UNL1        0.0190
      6 C         142.5610  143.1823  159.4313 C.ar    1  UNL1        0.0850
      7 N         143.1775  139.2227  157.3839 N.pl3   1  UNL1       -0.3046
      8 C         143.8850  139.1638  156.0625 C.3     1  UNL1        0.1081
      9 C         144.0906  137.8439  155.3800 C.3     1  UNL1        0.0939
     10 N         143.5886  136.5831  156.0189 N.3     1  UNL1       -0.2683
     11 C         142.8810  136.6420  157.3402 C.3     1  UNL1        0.0939
     12 C         142.6755  137.9618  158.0227 C.3     1  UNL1        0.1081
     13 C         143.7941  135.2631  155.3364 C.3     1  UNL1        0.0978
     14 C         143.4984  133.9870  156.0672 C.3     1  UNL1        0.1681
     15 S         142.3722  133.1064  155.6132 S.O2    1  UNL1       -0.0068
     16 C         141.2460  132.2257  155.1592 C.3     1  UNL1        0.1761
     17 O         142.2801  133.8838  154.3337 O.2     1  UNL1       -0.1729
     18 O         142.4644  132.3289  156.8927 O.2     1  UNL1       -0.1729
     19 C         144.9754  141.9639  162.0443 C.3     1  UNL1        0.2525
     20 O         144.7203  142.7982  160.8241 O.3     1  UNL1       -0.4701
     21 N         142.3555  144.5021  160.1137 N.pl3   1  UNL1       -0.2802
     22 H         142.8014  145.3093  159.7688 H       1  UNL1        0.1552
     23 C         141.4707  144.5923  161.3215 C.ar    1  UNL1        0.2208
     24 N         140.3819  145.6225  161.3784 N.ar    1  UNL1       -0.2111
     25 C         139.4971  145.7126  162.5863 C.ar    1  UNL1        0.1147
     26 C         139.7010  144.7725  163.7372 C.ar    1  UNL1        0.0960
     27 CL        138.8162  144.8627  164.9451 Cl      1  UNL1       -0.0790
     28 C         140.7898  143.7423  163.6803 C.ar    1  UNL1        0.1138
     29 N         141.6746  143.6522  162.4725 N.ar    1  UNL1       -0.2111
     30 C         140.9938  142.8022  164.8313 C.ar    1  UNL1        0.1031
     31 C         142.1403  142.8278  165.7981 C.ar    1  UNL1        0.1196
     32 N         141.9421  141.7129  166.7818 N.ar    1  UNL1       -0.2248
     33 C         140.6730  140.9983  166.4229 C.ar    1  UNL1        0.1479
     34 C         139.9754  139.8215  167.0381 C.ar    1  UNL1        0.0374
     35 C         138.6917  139.3180  166.4478 C.ar    1  UNL1        0.0046
     36 C         138.1056  139.9912  165.2423 C.ar    1  UNL1        0.0191
     37 C         138.8032  141.1680  164.6271 C.ar    1  UNL1        0.0815
     38 N         140.0869  141.6715  165.2174 N.ar    1  UNL1       -0.2874
@<TRIPOS>BOND
     1    19    20    1
     2    20     1    1
     3     1     2   ar
     4     2     3   ar
     5     3     7    1
     6     7     8    1
     7     8     9    1
     8     9    10    1
     9    10    13    1
    10    13    14    1
    11    14    15    1
    12    15    16    1
    13    15    17    2
    14    15    18    2
    15    10    11    1
    16    11    12    1
    17     3     4   ar
    18     4     5   ar
    19     5     6   ar
    20     6    21    1
    21    21    23    1
    22    23    24   ar
    23    24    25   ar
    24    25    26   ar
    25    26    27    1
    26    26    28   ar
    27    28    30    1
    28    30    31   ar
    29    31    32   ar
    30    32    33   ar
    31    33    34   ar
    32    34    35   ar
    33    35    36   ar
    34    36    37   ar
    35    37    38   ar
    36    28    29   ar
    37     6     1   ar
    38    29    23   ar
    39    12     7    1
    40    38    30   ar
    41    38    33   ar
    42    21    22    1
@<TRIPOS>MOLECULE
*****
 38 42 0 0 0
SMALL
GASTEIGER

@<TRIPOS>ATOM
      1 C         143.3276  140.2513  162.3380 C.ar    1  UNL1        0.1533
      2 C         142.9163  140.4195  163.7708 C.ar    1  UNL1        0.0527
      3 C         142.2129  139.3037  164.4851 C.ar    1  UNL1        0.0510
      4 C         141.9209  138.0197  163.7668 C.ar    1  UNL1        0.0160
      5 C         142.3322  137.8515  162.3341 C.ar    1  UNL1        0.0190
      6 C         143.0356  138.9672  161.6197 C.ar    1  UNL1        0.0850
      7 N         141.8016  139.4720  165.9177 N.pl3   1  UNL1       -0.3046
      8 C         142.8290  139.3892  167.0076 C.3     1  UNL1        0.1081
      9 C         142.4177  139.5575  168.4403 C.3     1  UNL1        0.0939
     10 N         140.9792  139.8085  168.7831 N.3     1  UNL1       -0.2683
     11 C         139.9519  139.8913  167.6932 C.3     1  UNL1        0.0939
     12 C         140.3631  139.7230  166.2606 C.3     1  UNL1        0.1081
     13 C         140.5679  139.9768  170.2158 C.3     1  UNL1        0.0978
     14 C         140.9985  141.1925  170.9818 C.3     1  UNL1        0.1681
     15 S         140.7172  142.5612  170.4364 S.O2    1  UNL1       -0.0068
     16 C         140.4358  143.9299  169.8910 C.3     1  UNL1        0.1761
     17 O         139.2530  142.3633  170.6950 O.2     1  UNL1       -0.1729
     18 O         142.1814  142.7591  170.1777 O.2     1  UNL1       -0.1729
     19 C         145.2032  142.0476  162.2661 C.3     1  UNL1        0.2525
     20 O         144.0310  141.3671  161.6237 O.3     1  UNL1       -0.4701
     21 N         143.4469  138.7989  160.1871 N.pl3   1  UNL1       -0.2802
     22 H         144.3800  138.9640  159.9202 H       1  UNL1        0.1552
     23 C         142.4365  138.3792  159.1610 C.ar    1  UNL1        0.2208
     24 N         141.0643  138.9849  159.1681 N.ar    1  UNL1       -0.2111
     25 C         140.0539  138.5651  158.1420 C.ar    1  UNL1        0.1147
     26 C         140.4157  137.5396  157.1089 C.ar    1  UNL1        0.0960
     27 CL        139.4053  137.1198  156.0828 Cl      1  UNL1       -0.0790
     28 C         141.7880  136.9338  157.1018 C.ar    1  UNL1        0.1138
     29 N         142.7983  137.3537  158.1278 N.ar    1  UNL1       -0.2111
     30 C         142.1498  135.9083  156.0686 C.ar    1  UNL1        0.1031
     31 C         141.8691  136.0012  154.5981 C.ar    1  UNL1        0.1196
     32 N         142.4017  134.7602  153.9453 N.ar    1  UNL1       -0.2248
     33 C         143.0115  133.9003  155.0124 C.ar    1  UNL1        0.1479
     34 C         143.6885  132.5628  154.9586 C.ar    1  UNL1        0.0374
     35 C         144.2097  131.9350  156.2172 C.ar    1  UNL1        0.0046
     36 C         144.0540  132.6446  157.5295 C.ar    1  UNL1        0.0191
     37 C         143.3771  133.9821  157.5833 C.ar    1  UNL1        0.0815
     38 N         142.8559  134.6099  156.3247 N.ar    1  UNL1       -0.2874
@<TRIPOS>BOND
     1    19    20    1
     2    20     1    1
     3     1     2   ar
     4     2     3   ar
     5     3     7    1
     6     7     8    1
     7     8     9    1
     8     9    10    1
     9    10    13    1
    10    13    14    1
    11    14    15    1
    12    15    16    1
    13    15    17    2
    14    15    18    2
    15    10    11    1
    16    11    12    1
    17     3     4   ar
    18     4     5   ar
    19     5     6   ar
    20     6    21    1
    21    21    23    1
    22    23    24   ar
    23    24    25   ar
    24    25    26   ar
    25    26    27    1
    26    26    28   ar
    27    28    30    1
    28    30    31   ar
    29    31    32   ar
    30    32    33   ar
    31    33    34   ar
    32    34    35   ar
    33    35    36   ar
    34    36    37   ar
    35    37    38   ar
    36    28    29   ar
    37     6     1   ar
    38    29    23   ar
    39    12     7    1
    40    38    30   ar
    41    38    33   ar
    42    21    22    1
@<TRIPOS>MOLECULE
*****
 38 42 0 0 0
SMALL
GASTEIGER

@<TRIPOS>ATOM
      1 C         138.6857  140.0090  159.1828 C.ar    1  UNL1        0.1533
      2 C         139.3297  138.7882  158.5953 C.ar    1  UNL1        0.0527
      3 C         140.4986  138.9305  157.6661 C.ar    1  UNL1        0.0510
      4 C         141.0235  140.2935  157.3244 C.ar    1  UNL1        0.0160
      5 C         140.3796  141.5142  157.9119 C.ar    1  UNL1        0.0190
      6 C         139.2106  141.3720  158.8412 C.ar    1  UNL1        0.0850
      7 N         141.1425  137.7098  157.0786 N.pl3   1  UNL1       -0.3046
      8 C         142.4727  137.2432  157.5914 C.3     1  UNL1        0.1081
      9 C         143.1167  136.0224  157.0039 C.3     1  UNL1        0.0939
     10 N         142.4305  135.2683  155.9038 N.3     1  UNL1       -0.2683
     11 C         141.1003  135.7349  155.3910 C.3     1  UNL1        0.0939
     12 C         140.4563  136.9557  155.9784 C.3     1  UNL1        0.1081
     13 C         143.0744  134.0475  155.3163 C.3     1  UNL1        0.0978
     14 C         144.0756  133.2688  156.1170 C.3     1  UNL1        0.1681
     15 S         143.7126  131.9204  156.6646 S.O2    1  UNL1       -0.0068
     16 C         143.3496  130.5719  157.2122 C.3     1  UNL1        0.1761
     17 O         144.7621  132.0689  157.7260 O.2     1  UNL1       -0.1729
     18 O         142.6632  131.7719  155.6032 O.2     1  UNL1       -0.1729
     19 C         137.7370  139.4503  161.5361 C.3     1  UNL1        0.2525
     20 O         137.5167  139.8667  160.1120 O.3     1  UNL1       -0.4701
     21 N         138.5667  142.5927  159.4286 N.pl3   1  UNL1       -0.2802
     22 H         137.9548  143.1375  158.8827 H       1  UNL1        0.1552
     23 C         138.8551  142.9835  160.8478 C.ar    1  UNL1        0.2208
     24 N         137.7246  143.2644  161.7929 N.ar    1  UNL1       -0.2111
     25 C         138.0130  143.6552  163.2120 C.ar    1  UNL1        0.1147
     26 C         139.4319  143.7650  163.6862 C.ar    1  UNL1        0.0960
     27 CL        139.7203  144.1558  165.1054 Cl      1  UNL1       -0.0790
     28 C         140.5624  143.4841  162.7411 C.ar    1  UNL1        0.1138
     29 N         140.2740  143.0934  161.3220 N.ar    1  UNL1       -0.2111
     30 C         141.9813  143.5940  163.2152 C.ar    1  UNL1        0.1031
     31 C         142.6929  144.8627  163.5811 C.ar    1  UNL1        0.1196
     32 N         144.0890  144.5072  163.9987 N.ar    1  UNL1       -0.2248
     33 C         144.2402  143.0187  163.8910 C.ar    1  UNL1        0.1479
     34 C         145.3958  142.1044  164.1712 C.ar    1  UNL1        0.0374
     35 C         145.2488  140.6257  163.9672 C.ar    1  UNL1        0.0046
     36 C         143.9461  140.0613  163.4830 C.ar    1  UNL1        0.0191
     37 C         142.7905  140.9756  163.2027 C.ar    1  UNL1        0.0815
     38 N         142.9376  142.4543  163.4067 N.ar    1  UNL1       -0.2874
@<TRIPOS>BOND
     1    19    20    1
     2    20     1    1
     3     1     2   ar
     4     2     3   ar
     5     3     7    1
     6     7     8    1
     7     8     9    1
     8     9    10    1
     9    10    13    1
    10    13    14    1
    11    14    15    1
    12    15    16    1
    13    15    17    2
    14    15    18    2
    15    10    11    1
    16    11    12    1
    17     3     4   ar
    18     4     5   ar
    19     5     6   ar
    20     6    21    1
    21    21    23    1
    22    23    24   ar
    23    24    25   ar
    24    25    26   ar
    25    26    27    1
    26    26    28   ar
    27    28    30    1
    28    30    31   ar
    29    31    32   ar
    30    32    33   ar
    31    33    34   ar
    32    34    35   ar
    33    35    36   ar
    34    36    37   ar
    35    37    38   ar
    36    28    29   ar
    37     6     1   ar
    38    29    23   ar
    39    12     7    1
    40    38    30   ar
    41    38    33   ar
    42    21    22    1
@<TRIPOS>MOLECULE
*****
 38 42 0 0 0
SMALL
GASTEIGER

@<TRIPOS>ATOM
      1 C         139.5737  140.5587  160.6681 C.ar    1  UNL1        0.1533
      2 C         139.6466  140.7217  162.1575 C.ar    1  UNL1        0.0527
      3 C         139.4732  139.5300  163.0518 C.ar    1  UNL1        0.0510
      4 C         139.2269  138.1753  162.4568 C.ar    1  UNL1        0.0160
      5 C         139.1540  138.0123  160.9675 C.ar    1  UNL1        0.0190
      6 C         139.3274  139.2040  160.0731 C.ar    1  UNL1        0.0850
      7 N         139.5461  139.6931  164.5411 N.pl3   1  UNL1       -0.3046
      8 C         138.4389  139.1708  165.4078 C.3     1  UNL1        0.1081
      9 C         138.5117  139.3339  166.8972 C.3     1  UNL1        0.0939
     10 N         139.6918  140.0192  167.5197 N.3     1  UNL1       -0.2683
     11 C         140.7990  140.5415  166.6530 C.3     1  UNL1        0.0939
     12 C         140.7262  140.3785  165.1637 C.3     1  UNL1        0.1081
     13 C         139.7647  140.1823  169.0091 C.3     1  UNL1        0.0978
     14 C         140.8350  141.0388  169.6182 C.3     1  UNL1        0.1681
     15 S         140.5907  142.5026  169.8363 S.O2    1  UNL1       -0.0068
     16 C         140.3463  143.9664  170.0544 C.3     1  UNL1        0.1761
     17 O         139.3433  142.1799  170.6044 O.2     1  UNL1       -0.1729
     18 O         141.8380  142.8252  169.0682 O.2     1  UNL1       -0.1729
     19 C         139.5097  143.1311  160.3097 C.3     1  UNL1        0.2525
     20 O         139.7471  141.7504  159.7738 O.3     1  UNL1       -0.4701
     21 N         139.2545  139.0409  158.5838 N.pl3   1  UNL1       -0.2802
     22 H         138.4063  139.2046  158.1116 H       1  UNL1        0.1552
     23 C         140.4739  138.6282  157.8138 C.ar    1  UNL1        0.2208
     24 N         141.6001  139.5991  157.6160 N.ar    1  UNL1       -0.2111
     25 C         142.8194  139.1865  156.8461 C.ar    1  UNL1        0.1147
     26 C         142.9127  137.8030  156.2739 C.ar    1  UNL1        0.0960
     27 CL        144.1320  137.3904  155.5040 Cl      1  UNL1       -0.0790
     28 C         141.7864  136.8321  156.4718 C.ar    1  UNL1        0.1138
     29 N         140.5671  137.2448  157.2417 N.ar    1  UNL1       -0.2111
     30 C         141.8796  135.4486  155.8997 C.ar    1  UNL1        0.1031
     31 C         141.1155  134.9300  154.7177 C.ar    1  UNL1        0.1196
     32 N         141.5170  133.5018  154.4966 N.ar    1  UNL1       -0.2248
     33 C         142.5292  133.1376  155.5420 C.ar    1  UNL1        0.1479
     34 C         143.2758  131.8659  155.8163 C.ar    1  UNL1        0.0374
     35 C         144.2465  131.7975  156.9578 C.ar    1  UNL1        0.0046
     36 C         144.4706  133.0007  157.8249 C.ar    1  UNL1        0.0191
     37 C         143.7240  134.2724  157.5506 C.ar    1  UNL1        0.0815
     38 N         142.7533  134.3409  156.4091 N.ar    1  UNL1       -0.2874
@<TRIPOS>BOND
     1    19    20    1
     2    20     1    1
     3     1     2   ar
     4     2     3   ar
     5     3     7    1
     6     7     8    1
     7     8     9    1
     8     9    10    1
     9    10    13    1
    10    13    14    1
    11    14    15    1
    12    15    16    1
    13    15    17    2
    14    15    18    2
    15    10    11    1
    16    11    12    1
    17     3     4   ar
    18     4     5   ar
    19     5     6   ar
    20     6    21    1
    21    21    23    1
    22    23    24   ar
    23    24    25   ar
    24    25    26   ar
    25    26    27    1
    26    26    28   ar
    27    28    30    1
    28    30    31   ar
    29    31    32   ar
    30    32    33   ar
    31    33    34   ar
    32    34    35   ar
    33    35    36   ar
    34    36    37   ar
    35    37    38   ar
    36    28    29   ar
    37     6     1   ar
    38    29    23   ar
    39    12     7    1
    40    38    30   ar
    41    38    33   ar
    42    21    22    1
@<TRIPOS>MOLECULE
*****
 38 42 0 0 0
SMALL
GASTEIGER

@<TRIPOS>ATOM
      1 C         141.7172  144.4399  162.9591 C.ar    1  UNL1        0.1533
      2 C         141.6057  143.6102  164.2039 C.ar    1  UNL1        0.0527
      3 C         140.2767  143.4476  164.8802 C.ar    1  UNL1        0.0510
      4 C         139.0593  144.1145  164.3118 C.ar    1  UNL1        0.0160
      5 C         139.1708  144.9441  163.0671 C.ar    1  UNL1        0.0190
      6 C         140.4998  145.1068  162.3907 C.ar    1  UNL1        0.0850
      7 N         140.1653  142.6180  166.1249 N.pl3   1  UNL1       -0.3046
      8 C         139.9017  141.1449  166.0232 C.3     1  UNL1        0.1081
      9 C         139.7902  140.3151  167.2679 C.3     1  UNL1        0.0939
     10 N         139.9423  140.9587  168.6142 N.3     1  UNL1       -0.2683
     11 C         140.2059  142.4318  168.7159 C.3     1  UNL1        0.0939
     12 C         140.3174  143.2615  167.4713 C.3     1  UNL1        0.1081
     13 C         139.8309  140.1291  169.8590 C.3     1  UNL1        0.0978
     14 C         141.0703  139.6363  170.5452 C.3     1  UNL1        0.1681
     15 S         142.3436  140.4234  170.4501 S.O2    1  UNL1       -0.0068
     16 C         143.6169  141.2105  170.3549 C.3     1  UNL1        0.1761
     17 O         141.8776  141.3122  171.5649 O.2     1  UNL1       -0.1729
     18 O         142.8097  139.5346  169.3353 O.2     1  UNL1       -0.1729
     19 C         143.9526  143.4191  162.1159 C.3     1  UNL1        0.2525
     20 O         143.0462  144.6025  162.2828 O.3     1  UNL1       -0.4701
     21 N         140.6113  145.9364  161.1460 N.pl3   1  UNL1       -0.2802
     22 H         140.6306  146.9187  161.2092 H       1  UNL1        0.1552
     23 C         140.6932  145.2694  159.8049 C.ar    1  UNL1        0.2208
     24 N         141.7401  145.6947  158.8185 N.ar    1  UNL1       -0.2111
     25 C         141.8221  145.0278  157.4775 C.ar    1  UNL1        0.1147
     26 C         140.8571  143.9356  157.1228 C.ar    1  UNL1        0.0960
     27 CL        140.9390  143.2686  155.7817 Cl      1  UNL1       -0.0790
     28 C         139.8101  143.5103  158.1093 C.ar    1  UNL1        0.1138
     29 N         139.7282  144.1772  159.4503 N.ar    1  UNL1       -0.2111
     30 C         138.8450  142.4180  157.7546 C.ar    1  UNL1        0.1031
     31 C         138.7563  141.0723  158.4113 C.ar    1  UNL1        0.1196
     32 N         137.6558  140.3024  157.7435 N.ar    1  UNL1       -0.2248
     33 C         137.0643  141.1722  156.6741 C.ar    1  UNL1        0.1479
     34 C         135.9514  140.9426  155.6950 C.ar    1  UNL1        0.0374
     35 C         135.5736  142.0205  154.7227 C.ar    1  UNL1        0.0046
     36 C         136.3086  143.3281  154.7296 C.ar    1  UNL1        0.0191
     37 C         137.4215  143.5577  155.7087 C.ar    1  UNL1        0.0815
     38 N         137.7993  142.4798  156.6810 N.ar    1  UNL1       -0.2874
@<TRIPOS>BOND
     1    19    20    1
     2    20     1    1
     3     1     2   ar
     4     2     3   ar
     5     3     7    1
     6     7     8    1
     7     8     9    1
     8     9    10    1
     9    10    13    1
    10    13    14    1
    11    14    15    1
    12    15    16    1
    13    15    17    2
    14    15    18    2
    15    10    11    1
    16    11    12    1
    17     3     4   ar
    18     4     5   ar
    19     5     6   ar
    20     6    21    1
    21    21    23    1
    22    23    24   ar
    23    24    25   ar
    24    25    26   ar
    25    26    27    1
    26    26    28   ar
    27    28    30    1
    28    30    31   ar
    29    31    32   ar
    30    32    33   ar
    31    33    34   ar
    32    34    35   ar
    33    35    36   ar
    34    36    37   ar
    35    37    38   ar
    36    28    29   ar
    37     6     1   ar
    38    29    23   ar
    39    12     7    1
    40    38    30   ar
    41    38    33   ar
    42    21    22    1
