@<TRIPOS>MOLECULE
*****
 39 43 0 0 0
SMALL
GASTEIGER

@<TRIPOS>ATOM
      1 C         139.7478  142.8764  160.2677 C.3     1  UNL1        0.0080
      2 C         139.5700  141.5251  160.8943 C.3     1  UNL1        0.0177
      3 C         139.8079  141.3427  162.3640 C.3     1  UNL1        0.0721
      4 N         140.2237  142.5116  163.2072 N.3     1  UNL1       -0.2736
      5 C         140.4016  143.8628  162.5807 C.3     1  UNL1        0.0776
      6 C         140.1636  144.0452  161.1109 C.3     1  UNL1        0.0525
      7 C         140.4617  142.3292  164.6769 C.3     1  UNL1        0.0582
      8 C         141.3657  141.4658  165.5059 C.3     1  UNL1        0.0204
      9 C         140.7982  142.0712  166.7555 C.3     1  UNL1        0.0274
     10 C         139.8942  142.9346  165.9265 C.3     1  UNL1        0.0204
     11 C         141.0362  141.8888  168.2252 C.ar    1  UNL1        0.0095
     12 C         142.0388  142.7495  168.9351 C.ar    1  UNL1        0.0277
     13 C         142.2768  142.5671  170.4049 C.ar    1  UNL1        0.1422
     14 F         143.2794  143.4278  171.1148 F       1  UNL1       -0.2041
     15 C         141.5121  141.5240  171.1647 C.ar    1  UNL1        0.0616
     16 C         140.5095  140.6633  170.4547 C.ar    1  UNL1        0.1693
     17 F         139.7448  139.6203  171.2145 F       1  UNL1       -0.2017
     18 C         140.2715  140.8457  168.9850 C.ar    1  UNL1        0.1635
     19 F         139.2689  139.9850  168.2751 F       1  UNL1       -0.2021
     20 C         140.3415  145.3964  160.4844 C.2     1  UNL1        0.0513
     21 O         139.3528  146.4890  160.7647 O.co2   1  UNL1       -0.5491
     22 O         141.5080  145.6550  159.5776 O.co2   1  UNL1       -0.5491
     23 C         139.5099  143.0588  158.7980 C.3     1  UNL1        0.0033
     24 C         140.4836  142.4967  157.8052 C.3     1  UNL1        0.0338
     25 C         141.9543  142.5227  158.0998 C.3     1  UNL1        0.1328
     26 O         142.7835  143.6983  157.6751 O.3     1  UNL1       -0.3801
     27 H         142.2189  144.3472  157.2268 H       1  UNL1        0.2108
     28 C         144.1738  143.2332  161.9492 C.ar    1  UNL1        0.1388
     29 C         144.8151  142.0836  162.6684 C.ar    1  UNL1        0.0384
     30 C         144.7166  140.6972  162.1044 C.ar    1  UNL1        0.0222
     31 C         143.9767  140.4604  160.8212 C.ar    1  UNL1        0.0813
     32 N         143.8782  139.0739  160.2572 N.ar    1  UNL1       -0.2439
     33 C         143.1384  138.8371  158.9741 C.ar    1  UNL1        0.0986
     34 C         142.4970  139.9867  158.2549 C.ar    1  UNL1        0.0187
     35 C         142.5956  141.3731  158.8189 C.ar    1  UNL1        0.0073
     36 C         143.3354  141.6099  160.1021 C.ar    1  UNL1        0.0190
     37 C         143.4340  142.9963  160.6661 C.ar    1  UNL1        0.0382
     38 C         143.7285  144.9138  163.8799 C.3     1  UNL1        0.2525
     39 O         144.2724  144.6196  162.5132 O.3     1  UNL1       -0.4714
@<TRIPOS>UNITY_ATOM_ATTR
21 1
charge -1
@<TRIPOS>BOND
     1    38    39    1
     2    39    28    1
     3    28    29   ar
     4    29    30   ar
     5    30    31   ar
     6    31    32   ar
     7    32    33   ar
     8    33    34   ar
     9    34    35   ar
    10    35    25    1
    11    25    26    1
    12    25    24    1
    13    24    23    1
    14     1    23    1
    15     1     2    1
    16     2     3    1
    17     3     4    1
    18     4     7    1
    19     7     8    1
    20     8     9    1
    21     9    11    1
    22    11    12   ar
    23    12    13   ar
    24    13    14    1
    25    13    15   ar
    26    15    16   ar
    27    16    17    1
    28    16    18   ar
    29    18    19    1
    30     9    10    1
    31     4     5    1
    32     5     6    1
    33     6    20    1
    34    20    21   ar
    35    20    22   ar
    36    35    36   ar
    37    36    37   ar
    38    37    28   ar
    39    36    31   ar
    40     6     1    1
    41    10     7    1
    42    18    11   ar
    43    26    27    1
@<TRIPOS>MOLECULE
*****
 39 43 0 0 0
SMALL
GASTEIGER

@<TRIPOS>ATOM
      1 C         139.6738  142.8002  160.0063 C.3     1  UNL1        0.0080
      2 C         139.4686  141.4413  160.6075 C.3     1  UNL1        0.0177
      3 C         139.8424  141.1900  162.0383 C.3     1  UNL1        0.0721
      4 N         140.4213  142.2975  162.8679 N.3     1  UNL1       -0.2736
      5 C         140.6266  143.6563  162.2667 C.3     1  UNL1        0.0776
      6 C         140.2528  143.9077  160.8358 C.3     1  UNL1        0.0525
      7 C         140.7951  142.0462  164.2986 C.3     1  UNL1        0.0582
      8 C         140.4856  142.7094  165.6079 C.3     1  UNL1        0.0204
      9 C         141.3237  141.6908  166.3221 C.3     1  UNL1        0.0274
     10 C         141.6332  141.0276  165.0128 C.3     1  UNL1        0.0204
     11 C         141.6975  141.4395  167.7529 C.ar    1  UNL1        0.0095
     12 C         140.7896  140.6348  168.6349 C.ar    1  UNL1        0.0277
     13 C         141.1634  140.3834  170.0658 C.ar    1  UNL1        0.1422
     14 F         140.2555  139.5786  170.9478 F       1  UNL1       -0.2041
     15 C         142.4450  140.9369  170.6145 C.ar    1  UNL1        0.0616
     16 C         143.3529  141.7417  169.7324 C.ar    1  UNL1        0.1693
     17 F         144.6345  142.2952  170.2811 F       1  UNL1       -0.2017
     18 C         142.9791  141.9930  168.3016 C.ar    1  UNL1        0.1635
     19 F         143.8870  142.7978  167.4196 F       1  UNL1       -0.2021
     20 C         140.4580  145.2665  160.2347 C.2     1  UNL1        0.0513
     21 O         139.4480  146.3504  160.4687 O.co2   1  UNL1       -0.5491
     22 O         141.6733  145.5414  159.3995 O.co2   1  UNL1       -0.5491
     23 C         139.3000  143.0515  158.5755 C.3     1  UNL1        0.0033
     24 C         140.1831  142.5518  157.4708 C.3     1  UNL1        0.0338
     25 C         141.6414  142.3110  157.7271 C.3     1  UNL1        0.1328
     26 O         142.6115  143.4537  157.6703 O.3     1  UNL1       -0.3801
     27 H         142.1355  144.2717  157.4578 H       1  UNL1        0.2108
     28 C         143.8522  141.5199  161.5659 C.ar    1  UNL1        0.1388
     29 C         144.3403  140.1365  161.8788 C.ar    1  UNL1        0.0384
     30 C         144.0915  139.0168  160.9121 C.ar    1  UNL1        0.0222
     31 C         143.3546  139.2805  159.6326 C.ar    1  UNL1        0.0813
     32 N         143.1058  138.1609  158.6659 N.ar    1  UNL1       -0.2439
     33 C         142.3689  138.4246  157.3863 C.ar    1  UNL1        0.0986
     34 C         141.8808  139.8080  157.0733 C.ar    1  UNL1        0.0187
     35 C         142.1295  140.9277  158.0400 C.ar    1  UNL1        0.0073
     36 C         142.8665  140.6639  159.3196 C.ar    1  UNL1        0.0190
     37 C         143.1153  141.7836  160.2863 C.ar    1  UNL1        0.0382
     38 C         144.9121  142.3954  163.7704 C.3     1  UNL1        0.2525
     39 O         144.1010  142.6396  162.5325 O.3     1  UNL1       -0.4714
@<TRIPOS>UNITY_ATOM_ATTR
21 1
charge -1
@<TRIPOS>BOND
     1    38    39    1
     2    39    28    1
     3    28    29   ar
     4    29    30   ar
     5    30    31   ar
     6    31    32   ar
     7    32    33   ar
     8    33    34   ar
     9    34    35   ar
    10    35    25    1
    11    25    26    1
    12    25    24    1
    13    24    23    1
    14     1    23    1
    15     1     2    1
    16     2     3    1
    17     3     4    1
    18     4     7    1
    19     7     8    1
    20     8     9    1
    21     9    11    1
    22    11    12   ar
    23    12    13   ar
    24    13    14    1
    25    13    15   ar
    26    15    16   ar
    27    16    17    1
    28    16    18   ar
    29    18    19    1
    30     9    10    1
    31     4     5    1
    32     5     6    1
    33     6    20    1
    34    20    21   ar
    35    20    22   ar
    36    35    36   ar
    37    36    37   ar
    38    37    28   ar
    39    36    31   ar
    40     6     1    1
    41    10     7    1
    42    18    11   ar
    43    26    27    1
@<TRIPOS>MOLECULE
*****
 39 43 0 0 0
SMALL
GASTEIGER

@<TRIPOS>ATOM
      1 C         142.8925  142.5308  164.8986 C.3     1  UNL1        0.0080
      2 C         141.6581  143.3789  164.8127 C.3     1  UNL1        0.0177
      3 C         141.1199  143.7865  163.4733 C.3     1  UNL1        0.0721
      4 N         141.8159  143.3461  162.2197 N.3     1  UNL1       -0.2736
      5 C         143.0502  142.4981  162.3055 C.3     1  UNL1        0.0776
      6 C         143.5885  142.0904  163.6450 C.3     1  UNL1        0.0525
      7 C         141.2777  143.7537  160.8803 C.3     1  UNL1        0.0582
      8 C         140.0622  144.4937  160.4061 C.3     1  UNL1        0.0204
      9 C         140.5165  144.3302  158.9859 C.3     1  UNL1        0.0274
     10 C         141.7320  143.5902  159.4601 C.3     1  UNL1        0.0204
     11 C         139.9782  144.7378  157.6465 C.ar    1  UNL1        0.0095
     12 C         140.1977  146.1337  157.1432 C.ar    1  UNL1        0.0277
     13 C         139.6595  146.5414  155.8037 C.ar    1  UNL1        0.1422
     14 F         139.8790  147.9372  155.3005 F       1  UNL1       -0.2041
     15 C         138.9018  145.5531  154.9676 C.ar    1  UNL1        0.0616
     16 C         138.6823  144.1572  155.4709 C.ar    1  UNL1        0.1693
     17 F         137.9246  143.1689  154.6347 F       1  UNL1       -0.2017
     18 C         139.2205  143.7496  156.8103 C.ar    1  UNL1        0.1635
     19 F         139.0010  142.3537  157.3136 F       1  UNL1       -0.2021
     20 C         144.8228  141.2424  163.7308 C.2     1  UNL1        0.0513
     21 O         144.7461  139.8636  164.3163 O.co2   1  UNL1       -0.5491
     22 O         146.1337  141.7733  163.2311 O.co2   1  UNL1       -0.5491
     23 C         143.4307  142.1232  166.2380 C.3     1  UNL1        0.0033
     24 C         142.5137  141.5283  167.2653 C.3     1  UNL1        0.0338
     25 C         142.1963  140.0627  167.2284 C.3     1  UNL1        0.1328
     26 O         143.2512  139.0577  167.5849 O.3     1  UNL1       -0.3801
     27 H         144.0734  139.5190  167.8132 H       1  UNL1        0.2108
     28 C         141.5582  138.0146  163.2727 C.ar    1  UNL1        0.1388
     29 C         140.1859  137.5541  162.8794 C.ar    1  UNL1        0.0384
     30 C         139.0264  137.7762  163.8046 C.ar    1  UNL1        0.0222
     31 C         139.2390  138.4589  165.1231 C.ar    1  UNL1        0.0813
     32 N         138.0795  138.6811  166.0483 N.ar    1  UNL1       -0.2439
     33 C         138.2922  139.3638  167.3669 C.ar    1  UNL1        0.0986
     34 C         139.6645  139.8244  167.7603 C.ar    1  UNL1        0.0187
     35 C         140.8241  139.6022  166.8351 C.ar    1  UNL1        0.0073
     36 C         140.6113  138.9195  165.5165 C.ar    1  UNL1        0.0190
     37 C         141.7709  138.6973  164.5913 C.ar    1  UNL1        0.0382
     38 C         142.5399  137.9623  160.8678 C.3     1  UNL1        0.2525
     39 O         142.7178  137.7924  162.3475 O.3     1  UNL1       -0.4714
@<TRIPOS>UNITY_ATOM_ATTR
21 1
charge -1
@<TRIPOS>BOND
     1    38    39    1
     2    39    28    1
     3    28    29   ar
     4    29    30   ar
     5    30    31   ar
     6    31    32   ar
     7    32    33   ar
     8    33    34   ar
     9    34    35   ar
    10    35    25    1
    11    25    26    1
    12    25    24    1
    13    24    23    1
    14     1    23    1
    15     1     2    1
    16     2     3    1
    17     3     4    1
    18     4     7    1
    19     7     8    1
    20     8     9    1
    21     9    11    1
    22    11    12   ar
    23    12    13   ar
    24    13    14    1
    25    13    15   ar
    26    15    16   ar
    27    16    17    1
    28    16    18   ar
    29    18    19    1
    30     9    10    1
    31     4     5    1
    32     5     6    1
    33     6    20    1
    34    20    21   ar
    35    20    22   ar
    36    35    36   ar
    37    36    37   ar
    38    37    28   ar
    39    36    31   ar
    40     6     1    1
    41    10     7    1
    42    18    11   ar
    43    26    27    1
@<TRIPOS>MOLECULE
*****
 39 43 0 0 0
SMALL
GASTEIGER

@<TRIPOS>ATOM
      1 C         142.4588  138.1835  159.5438 C.3     1  UNL1        0.0080
      2 C         143.5456  137.8543  160.5239 C.3     1  UNL1        0.0177
      3 C         143.3470  138.1302  161.9848 C.3     1  UNL1        0.0721
      4 N         142.0616  138.7355  162.4658 N.3     1  UNL1       -0.2736
      5 C         140.9748  139.0648  161.4858 C.3     1  UNL1        0.0776
      6 C         141.1734  138.7888  160.0248 C.3     1  UNL1        0.0525
      7 C         141.8630  139.0115  163.9267 C.3     1  UNL1        0.0582
      8 C         141.4136  138.2028  165.1074 C.3     1  UNL1        0.0204
      9 C         141.5821  139.4018  165.9929 C.3     1  UNL1        0.0274
     10 C         142.0315  140.2105  164.8122 C.3     1  UNL1        0.0204
     11 C         141.3835  139.6778  167.4538 C.ar    1  UNL1        0.0095
     12 C         142.5512  139.6199  168.3935 C.ar    1  UNL1        0.0277
     13 C         142.3527  139.8959  169.8545 C.ar    1  UNL1        0.1422
     14 F         143.5204  139.8380  170.7942 F       1  UNL1       -0.2041
     15 C         140.9863  140.2298  170.3757 C.ar    1  UNL1        0.0616
     16 C         139.8186  140.2876  169.4360 C.ar    1  UNL1        0.1693
     17 F         138.4523  140.6215  169.9572 F       1  UNL1       -0.2017
     18 C         140.0172  140.0116  167.9751 C.ar    1  UNL1        0.1635
     19 F         138.8495  140.0695  167.0354 F       1  UNL1       -0.2021
     20 C         140.0865  139.1181  159.0449 C.2     1  UNL1        0.0513
     21 O         139.4246  138.0225  158.2630 O.co2   1  UNL1       -0.5491
     22 O         139.6617  140.5429  158.8468 O.co2   1  UNL1       -0.5491
     23 C         142.6574  137.9075  158.0829 C.3     1  UNL1        0.0033
     24 C         142.8431  139.0453  157.1232 C.3     1  UNL1        0.0338
     25 C         143.6466  140.2452  157.5290 C.3     1  UNL1        0.1328
     26 O         145.1446  140.2016  157.4641 O.3     1  UNL1       -0.3801
     27 H         145.4291  139.3322  157.1416 H       1  UNL1        0.2108
     28 C         144.4365  141.8354  161.6639 C.ar    1  UNL1        0.1388
     29 C         143.7420  143.0788  162.1346 C.ar    1  UNL1        0.0384
     30 C         142.7843  143.7922  161.2269 C.ar    1  UNL1        0.0222
     31 C         142.5210  143.2622  159.8486 C.ar    1  UNL1        0.0813
     32 N         141.5633  143.9756  158.9410 N.ar    1  UNL1       -0.2439
     33 C         141.3000  143.4456  157.5627 C.ar    1  UNL1        0.0986
     34 C         141.9945  142.2021  157.0920 C.ar    1  UNL1        0.0187
     35 C         142.9522  141.4887  157.9997 C.ar    1  UNL1        0.0073
     36 C         143.2155  142.0187  159.3780 C.ar    1  UNL1        0.0190
     37 C         144.1732  141.3053  160.2856 C.ar    1  UNL1        0.0382
     38 C         145.5974  141.6056  163.9768 C.3     1  UNL1        0.2525
     39 O         145.3942  141.1219  162.5716 O.3     1  UNL1       -0.4714
@<TRIPOS>UNITY_ATOM_ATTR
21 1
charge -1
@<TRIPOS>BOND
     1    38    39    1
     2    39    28    1
     3    28    29   ar
     4    29    30   ar
     5    30    31   ar
     6    31    32   ar
     7    32    33   ar
     8    33    34   ar
     9    34    35   ar
    10    35    25    1
    11    25    26    1
    12    25    24    1
    13    24    23    1
    14     1    23    1
    15     1     2    1
    16     2     3    1
    17     3     4    1
    18     4     7    1
    19     7     8    1
    20     8     9    1
    21     9    11    1
    22    11    12   ar
    23    12    13   ar
    24    13    14    1
    25    13    15   ar
    26    15    16   ar
    27    16    17    1
    28    16    18   ar
    29    18    19    1
    30     9    10    1
    31     4     5    1
    32     5     6    1
    33     6    20    1
    34    20    21   ar
    35    20    22   ar
    36    35    36   ar
    37    36    37   ar
    38    37    28   ar
    39    36    31   ar
    40     6     1    1
    41    10     7    1
    42    18    11   ar
    43    26    27    1
@<TRIPOS>MOLECULE
*****
 39 43 0 0 0
SMALL
GASTEIGER

@<TRIPOS>ATOM
      1 C         142.3089  138.4248  159.4117 C.3     1  UNL1        0.0080
      2 C         143.2681  137.8265  160.3976 C.3     1  UNL1        0.0177
      3 C         143.0738  138.0562  161.8671 C.3     1  UNL1        0.0721
      4 N         141.9203  138.8842  162.3508 N.3     1  UNL1       -0.2736
      5 C         140.9611  139.4824  161.3649 C.3     1  UNL1        0.0776
      6 C         141.1553  139.2528  159.8954 C.3     1  UNL1        0.0525
      7 C         141.7261  139.1139  163.8203 C.3     1  UNL1        0.0582
      8 C         141.5670  138.2282  165.0204 C.3     1  UNL1        0.0204
      9 C         141.4513  139.4387  165.8986 C.3     1  UNL1        0.0274
     10 C         141.6104  140.3244  164.6985 C.3     1  UNL1        0.0204
     11 C         141.2570  139.6684  167.3681 C.ar    1  UNL1        0.0095
     12 C         142.4349  139.6264  168.2959 C.ar    1  UNL1        0.0277
     13 C         142.2406  139.8561  169.7654 C.ar    1  UNL1        0.1422
     14 F         143.4185  139.8141  170.6932 F       1  UNL1       -0.2041
     15 C         140.8685  140.1278  170.3071 C.ar    1  UNL1        0.0616
     16 C         139.6906  140.1699  169.3792 C.ar    1  UNL1        0.1693
     17 F         138.3185  140.4416  169.9209 F       1  UNL1       -0.2017
     18 C         139.8849  139.9402  167.9098 C.ar    1  UNL1        0.1635
     19 F         138.7070  139.9822  166.9820 F       1  UNL1       -0.2021
     20 C         140.1961  139.8510  158.9095 C.2     1  UNL1        0.0513
     21 O         138.9388  139.1178  158.5469 O.co2   1  UNL1       -0.5491
     22 O         140.4942  141.1825  158.2864 O.co2   1  UNL1       -0.5491
     23 C         142.5031  138.1951  157.9422 C.3     1  UNL1        0.0033
     24 C         142.8710  136.8309  157.4386 C.3     1  UNL1        0.0338
     25 C         143.4603  136.6710  156.0684 C.3     1  UNL1        0.1328
     26 O         144.7752  137.3126  155.7380 O.3     1  UNL1       -0.3801
     27 H         145.1066  137.7894  156.5150 H       1  UNL1        0.2108
     28 C         144.1980  132.2456  155.7194 C.ar    1  UNL1        0.1388
     29 C         143.4724  131.4440  154.6798 C.ar    1  UNL1        0.0384
     30 C         142.5008  132.1176  153.7565 C.ar    1  UNL1        0.0222
     31 C         142.2549  133.5926  153.8728 C.ar    1  UNL1        0.0813
     32 N         141.2833  134.2661  152.9495 N.ar    1  UNL1       -0.2439
     33 C         141.0374  135.7412  153.0659 C.ar    1  UNL1        0.0986
     34 C         141.7631  136.5429  154.1055 C.ar    1  UNL1        0.0187
     35 C         142.7346  135.8694  155.0288 C.ar    1  UNL1        0.0073
     36 C         142.9805  134.3942  154.9124 C.ar    1  UNL1        0.0190
     37 C         143.9521  133.7207  155.8357 C.ar    1  UNL1        0.0382
     38 C         145.3883  132.1121  158.0249 C.3     1  UNL1        0.2525
     39 O         145.1696  131.5721  156.6427 O.3     1  UNL1       -0.4714
@<TRIPOS>UNITY_ATOM_ATTR
21 1
charge -1
@<TRIPOS>BOND
     1    38    39    1
     2    39    28    1
     3    28    29   ar
     4    29    30   ar
     5    30    31   ar
     6    31    32   ar
     7    32    33   ar
     8    33    34   ar
     9    34    35   ar
    10    35    25    1
    11    25    26    1
    12    25    24    1
    13    24    23    1
    14     1    23    1
    15     1     2    1
    16     2     3    1
    17     3     4    1
    18     4     7    1
    19     7     8    1
    20     8     9    1
    21     9    11    1
    22    11    12   ar
    23    12    13   ar
    24    13    14    1
    25    13    15   ar
    26    15    16   ar
    27    16    17    1
    28    16    18   ar
    29    18    19    1
    30     9    10    1
    31     4     5    1
    32     5     6    1
    33     6    20    1
    34    20    21   ar
    35    20    22   ar
    36    35    36   ar
    37    36    37   ar
    38    37    28   ar
    39    36    31   ar
    40     6     1    1
    41    10     7    1
    42    18    11   ar
    43    26    27    1
@<TRIPOS>MOLECULE
*****
 39 43 0 0 0
SMALL
GASTEIGER

@<TRIPOS>ATOM
      1 C         141.7330  143.3547  160.0411 C.3     1  UNL1        0.0080
      2 C         142.5895  144.0516  161.0564 C.3     1  UNL1        0.0177
      3 C         142.4435  143.7236  162.5127 C.3     1  UNL1        0.0721
      4 N         141.4411  142.6987  162.9539 N.3     1  UNL1       -0.2736
      5 C         140.5846  142.0017  161.9387 C.3     1  UNL1        0.0776
      6 C         140.7306  142.3297  160.4823 C.3     1  UNL1        0.0525
      7 C         141.2952  142.3707  164.4103 C.3     1  UNL1        0.0582
      8 C         142.2030  142.4147  165.6036 C.3     1  UNL1        0.0204
      9 C         141.0888  141.9068  166.4701 C.3     1  UNL1        0.0274
     10 C         140.1810  141.8628  165.2768 C.3     1  UNL1        0.0204
     11 C         140.9429  141.5788  167.9264 C.ar    1  UNL1        0.0095
     12 C         140.2807  142.5555  168.8525 C.ar    1  UNL1        0.0277
     13 C         140.1348  142.2276  170.3089 C.ar    1  UNL1        0.1422
     14 F         139.4726  143.2043  171.2349 F       1  UNL1       -0.2041
     15 C         140.6510  140.9229  170.8393 C.ar    1  UNL1        0.0616
     16 C         141.3132  139.9461  169.9132 C.ar    1  UNL1        0.1693
     17 F         141.8294  138.6414  170.4435 F       1  UNL1       -0.2017
     18 C         141.4591  140.2741  168.4568 C.ar    1  UNL1        0.1635
     19 F         142.1212  139.2974  167.5308 F       1  UNL1       -0.2021
     20 C         139.8741  141.6328  159.4671 C.2     1  UNL1        0.0513
     21 O         138.6364  142.3001  158.9451 O.co2   1  UNL1       -0.5491
     22 O         140.2553  140.2684  158.9739 O.co2   1  UNL1       -0.5491
     23 C         141.8789  143.6827  158.5847 C.3     1  UNL1        0.0033
     24 C         143.1529  143.3517  157.8654 C.3     1  UNL1        0.0338
     25 C         144.0942  142.3333  158.4372 C.3     1  UNL1        0.1328
     26 O         145.4150  142.7662  159.0012 O.3     1  UNL1       -0.3801
     27 H         145.5019  143.7287  158.9188 H       1  UNL1        0.2108
     28 C         144.1548  140.0123  162.2920 C.ar    1  UNL1        0.1388
     29 C         143.7753  138.5612  162.2997 C.ar    1  UNL1        0.0384
     30 C         143.3756  137.8837  161.0225 C.ar    1  UNL1        0.0222
     31 C         143.3554  138.6573  159.7376 C.ar    1  UNL1        0.0813
     32 N         142.9557  137.9798  158.4604 N.ar    1  UNL1       -0.2439
     33 C         142.9355  138.7534  157.1755 C.ar    1  UNL1        0.0986
     34 C         143.3150  140.2046  157.1677 C.ar    1  UNL1        0.0187
     35 C         143.7147  140.8822  158.4449 C.ar    1  UNL1        0.0073
     36 C         143.7349  140.1084  159.7299 C.ar    1  UNL1        0.0190
     37 C         144.1346  140.7860  161.0071 C.ar    1  UNL1        0.0382
     38 C         145.6559  141.7081  163.5652 C.3     1  UNL1        0.2525
     39 O         144.5545  140.6899  163.5692 O.3     1  UNL1       -0.4714
@<TRIPOS>UNITY_ATOM_ATTR
21 1
charge -1
@<TRIPOS>BOND
     1    38    39    1
     2    39    28    1
     3    28    29   ar
     4    29    30   ar
     5    30    31   ar
     6    31    32   ar
     7    32    33   ar
     8    33    34   ar
     9    34    35   ar
    10    35    25    1
    11    25    26    1
    12    25    24    1
    13    24    23    1
    14     1    23    1
    15     1     2    1
    16     2     3    1
    17     3     4    1
    18     4     7    1
    19     7     8    1
    20     8     9    1
    21     9    11    1
    22    11    12   ar
    23    12    13   ar
    24    13    14    1
    25    13    15   ar
    26    15    16   ar
    27    16    17    1
    28    16    18   ar
    29    18    19    1
    30     9    10    1
    31     4     5    1
    32     5     6    1
    33     6    20    1
    34    20    21   ar
    35    20    22   ar
    36    35    36   ar
    37    36    37   ar
    38    37    28   ar
    39    36    31   ar
    40     6     1    1
    41    10     7    1
    42    18    11   ar
    43    26    27    1
@<TRIPOS>MOLECULE
*****
 39 43 0 0 0
SMALL
GASTEIGER

@<TRIPOS>ATOM
      1 C         141.0017  138.3113  163.5994 C.3     1  UNL1        0.0080
      2 C         140.3742  138.1273  162.2494 C.3     1  UNL1        0.0177
      3 C         140.9994  138.7563  161.0397 C.3     1  UNL1        0.0721
      4 N         142.2521  139.5694  161.1799 N.3     1  UNL1       -0.2736
      5 C         142.8796  139.7534  162.5298 C.3     1  UNL1        0.0776
      6 C         142.2544  139.1244  163.7396 C.3     1  UNL1        0.0525
      7 C         142.8772  140.1984  159.9702 C.3     1  UNL1        0.0582
      8 C         143.3957  139.6889  158.6580 C.3     1  UNL1        0.0204
      9 C         143.7614  141.0879  158.2592 C.3     1  UNL1        0.0274
     10 C         143.2430  141.5974  159.5714 C.3     1  UNL1        0.0204
     11 C         144.3866  141.7169  157.0495 C.ar    1  UNL1        0.0095
     12 C         145.8793  141.7421  156.9041 C.ar    1  UNL1        0.0277
     13 C         146.5045  142.3711  155.6943 C.ar    1  UNL1        0.1422
     14 F         147.9972  142.3962  155.5489 F       1  UNL1       -0.2041
     15 C         145.6370  142.9750  154.6300 C.ar    1  UNL1        0.0616
     16 C         144.1442  142.9498  154.7755 C.ar    1  UNL1        0.1693
     17 F         143.2767  143.5537  153.7112 F       1  UNL1       -0.2017
     18 C         143.5191  142.3208  155.9852 C.ar    1  UNL1        0.1635
     19 F         142.0264  142.2957  156.1306 F       1  UNL1       -0.2021
     20 C         142.8819  139.3085  165.0895 C.2     1  UNL1        0.0513
     21 O         142.9995  140.6820  165.6809 O.co2   1  UNL1       -0.5491
     22 O         143.3919  138.1192  165.8480 O.co2   1  UNL1       -0.5491
     23 C         140.3765  137.6823  164.8091 C.3     1  UNL1        0.0033
     24 C         138.9047  137.8321  165.0562 C.3     1  UNL1        0.0338
     25 C         138.4179  138.6656  166.2044 C.3     1  UNL1        0.1328
     26 O         137.1911  138.2538  166.9631 O.3     1  UNL1       -0.3801
     27 H         136.8376  137.4333  166.5853 H       1  UNL1        0.2108
     28 C         138.2479  142.3035  163.5611 C.ar    1  UNL1        0.1388
     29 C         138.9878  143.5487  163.9506 C.ar    1  UNL1        0.0384
     30 C         139.7844  143.5814  165.2212 C.ar    1  UNL1        0.0222
     31 C         139.8410  142.3689  166.1023 C.ar    1  UNL1        0.0813
     32 N         140.6376  142.4016  167.3729 N.ar    1  UNL1       -0.2439
     33 C         140.6943  141.1890  168.2540 C.ar    1  UNL1        0.0986
     34 C         139.9544  139.9436  167.8645 C.ar    1  UNL1        0.0187
     35 C         139.1578  139.9109  166.5939 C.ar    1  UNL1        0.0073
     36 C         139.1011  141.1236  165.7128 C.ar    1  UNL1        0.0190
     37 C         138.3045  141.0909  164.4422 C.ar    1  UNL1        0.0382
     38 C         138.1536  142.2497  160.9653 C.3     1  UNL1        0.2525
     39 O         137.4513  142.2708  162.2905 O.3     1  UNL1       -0.4714
@<TRIPOS>UNITY_ATOM_ATTR
21 1
charge -1
@<TRIPOS>BOND
     1    38    39    1
     2    39    28    1
     3    28    29   ar
     4    29    30   ar
     5    30    31   ar
     6    31    32   ar
     7    32    33   ar
     8    33    34   ar
     9    34    35   ar
    10    35    25    1
    11    25    26    1
    12    25    24    1
    13    24    23    1
    14     1    23    1
    15     1     2    1
    16     2     3    1
    17     3     4    1
    18     4     7    1
    19     7     8    1
    20     8     9    1
    21     9    11    1
    22    11    12   ar
    23    12    13   ar
    24    13    14    1
    25    13    15   ar
    26    15    16   ar
    27    16    17    1
    28    16    18   ar
    29    18    19    1
    30     9    10    1
    31     4     5    1
    32     5     6    1
    33     6    20    1
    34    20    21   ar
    35    20    22   ar
    36    35    36   ar
    37    36    37   ar
    38    37    28   ar
    39    36    31   ar
    40     6     1    1
    41    10     7    1
    42    18    11   ar
    43    26    27    1
@<TRIPOS>MOLECULE
*****
 39 43 0 0 0
SMALL
GASTEIGER

@<TRIPOS>ATOM
      1 C         138.9027  142.4059  160.2507 C.3     1  UNL1        0.0080
      2 C         138.3211  141.3792  161.1768 C.3     1  UNL1        0.0177
      3 C         138.8249  141.2684  162.5853 C.3     1  UNL1        0.0721
      4 N         139.9103  142.1844  163.0678 N.3     1  UNL1       -0.2736
      5 C         140.4919  143.2112  162.1418 C.3     1  UNL1        0.0776
      6 C         139.9881  143.3219  160.7332 C.3     1  UNL1        0.0525
      7 C         140.4141  142.0737  164.4762 C.3     1  UNL1        0.0582
      8 C         140.4294  142.9798  165.6716 C.3     1  UNL1        0.0204
      9 C         141.1266  141.9171  166.4683 C.3     1  UNL1        0.0274
     10 C         141.1113  141.0111  165.2730 C.3     1  UNL1        0.0204
     11 C         141.6304  141.8064  167.8768 C.ar    1  UNL1        0.0095
     12 C         143.0087  142.2882  168.2203 C.ar    1  UNL1        0.0277
     13 C         143.5126  142.1775  169.6288 C.ar    1  UNL1        0.1422
     14 F         144.8909  142.6592  169.9724 F       1  UNL1       -0.2041
     15 C         142.6380  141.5850  170.6938 C.ar    1  UNL1        0.0616
     16 C         141.2596  141.1032  170.3502 C.ar    1  UNL1        0.1693
     17 F         140.3851  140.5107  171.4152 F       1  UNL1       -0.2017
     18 C         140.7558  141.2139  168.9417 C.ar    1  UNL1        0.1635
     19 F         139.3775  140.7321  168.5982 F       1  UNL1       -0.2021
     20 C         140.5697  144.3487  159.8072 C.2     1  UNL1        0.0513
     21 O         139.9033  145.6837  159.6542 O.co2   1  UNL1       -0.5491
     22 O         141.8177  144.0403  159.0343 O.co2   1  UNL1       -0.5491
     23 C         138.3989  142.5167  158.8422 C.3     1  UNL1        0.0033
     24 C         139.0819  141.7627  157.7400 C.3     1  UNL1        0.0338
     25 C         139.7025  140.4257  158.0184 C.3     1  UNL1        0.1328
     26 O         138.8365  139.2065  158.1348 O.3     1  UNL1       -0.3801
     27 H         137.9081  139.4557  158.0048 H       1  UNL1        0.2108
     28 C         141.4120  138.0460  161.4338 C.ar    1  UNL1        0.1388
     29 C         142.8985  137.9283  161.5959 C.ar    1  UNL1        0.0384
     30 C         143.8152  138.6039  160.6195 C.ar    1  UNL1        0.0222
     31 C         143.2454  139.3971  159.4811 C.ar    1  UNL1        0.0813
     32 N         144.1622  140.0726  158.5047 N.ar    1  UNL1       -0.2439
     33 C         143.5923  140.8658  157.3663 C.ar    1  UNL1        0.0986
     34 C         142.1057  140.9835  157.2042 C.ar    1  UNL1        0.0187
     35 C         141.1890  140.3080  158.1805 C.ar    1  UNL1        0.0073
     36 C         141.7589  139.5148  159.3190 C.ar    1  UNL1        0.0190
     37 C         140.8422  138.8392  160.2954 C.ar    1  UNL1        0.0382
     38 C         139.0541  137.7784  162.4915 C.3     1  UNL1        0.2525
     39 O         140.4952  137.3705  162.4102 O.3     1  UNL1       -0.4714
@<TRIPOS>UNITY_ATOM_ATTR
21 1
charge -1
@<TRIPOS>BOND
     1    38    39    1
     2    39    28    1
     3    28    29   ar
     4    29    30   ar
     5    30    31   ar
     6    31    32   ar
     7    32    33   ar
     8    33    34   ar
     9    34    35   ar
    10    35    25    1
    11    25    26    1
    12    25    24    1
    13    24    23    1
    14     1    23    1
    15     1     2    1
    16     2     3    1
    17     3     4    1
    18     4     7    1
    19     7     8    1
    20     8     9    1
    21     9    11    1
    22    11    12   ar
    23    12    13   ar
    24    13    14    1
    25    13    15   ar
    26    15    16   ar
    27    16    17    1
    28    16    18   ar
    29    18    19    1
    30     9    10    1
    31     4     5    1
    32     5     6    1
    33     6    20    1
    34    20    21   ar
    35    20    22   ar
    36    35    36   ar
    37    36    37   ar
    38    37    28   ar
    39    36    31   ar
    40     6     1    1
    41    10     7    1
    42    18    11   ar
    43    26    27    1
@<TRIPOS>MOLECULE
*****
 39 43 0 0 0
SMALL
GASTEIGER

@<TRIPOS>ATOM
      1 C         143.8229  142.5437  160.2562 C.3     1  UNL1        0.0080
      2 C         144.1879  143.5020  161.3509 C.3     1  UNL1        0.0177
      3 C         143.8882  143.1579  162.7798 C.3     1  UNL1        0.0721
      4 N         143.2234  141.8555  163.1140 N.3     1  UNL1       -0.2736
      5 C         142.8583  140.8971  162.0194 C.3     1  UNL1        0.0776
      6 C         143.1581  141.2412  160.5904 C.3     1  UNL1        0.0525
      7 C         142.9236  141.5114  164.5429 C.3     1  UNL1        0.0582
      8 C         141.9753  140.5756  165.2320 C.3     1  UNL1        0.0204
      9 C         142.4996  141.0247  166.5637 C.3     1  UNL1        0.0274
     10 C         143.4480  141.9605  165.8746 C.3     1  UNL1        0.0204
     11 C         142.1999  140.6806  167.9926 C.ar    1  UNL1        0.0095
     12 C         142.6320  139.3577  168.5519 C.ar    1  UNL1        0.0277
     13 C         142.3323  139.0135  169.9809 C.ar    1  UNL1        0.1422
     14 F         142.7645  137.6905  170.5402 F       1  UNL1       -0.2041
     15 C         141.6003  139.9924  170.8504 C.ar    1  UNL1        0.0616
     16 C         141.1681  141.3154  170.2910 C.ar    1  UNL1        0.1693
     17 F         140.4362  142.2943  171.1605 F       1  UNL1       -0.2017
     18 C         141.4679  141.6595  168.8621 C.ar    1  UNL1        0.1635
     19 F         141.0357  142.9825  168.3027 F       1  UNL1       -0.2021
     20 C         142.7931  140.2829  159.4958 C.2     1  UNL1        0.0513
     21 O         141.3683  140.1725  159.0399 O.co2   1  UNL1       -0.5491
     22 O         143.8528  139.4349  158.8571 O.co2   1  UNL1       -0.5491
     23 C         144.1227  142.8877  158.8274 C.3     1  UNL1        0.0033
     24 C         143.1304  143.6716  158.0207 C.3     1  UNL1        0.0338
     25 C         141.9265  144.2689  158.6872 C.3     1  UNL1        0.1328
     26 O         142.0082  145.6370  159.2967 O.3     1  UNL1       -0.3801
     27 H         142.9021  145.9931  159.1734 H       1  UNL1        0.2108
     28 C         139.9274  143.5176  162.6482 C.ar    1  UNL1        0.1388
     29 C         138.6420  142.7467  162.7052 C.ar    1  UNL1        0.0384
     30 C         138.0229  142.2262  161.4419 C.ar    1  UNL1        0.0222
     31 C         138.6892  142.4766  160.1216 C.ar    1  UNL1        0.0813
     32 N         138.0702  141.9561  158.8584 N.ar    1  UNL1       -0.2439
     33 C         138.7365  142.2065  157.5381 C.ar    1  UNL1        0.0986
     34 C         140.0220  142.9774  157.4810 C.ar    1  UNL1        0.0187
     35 C         140.6411  143.4979  158.7443 C.ar    1  UNL1        0.0073
     36 C         139.9747  143.2475  160.0646 C.ar    1  UNL1        0.0190
     37 C         140.5938  143.7680  161.3279 C.ar    1  UNL1        0.0382
     38 C         139.9021  143.7524  165.2355 C.3     1  UNL1        0.2525
     39 O         140.5465  144.0381  163.9114 O.3     1  UNL1       -0.4714
@<TRIPOS>UNITY_ATOM_ATTR
21 1
charge -1
@<TRIPOS>BOND
     1    38    39    1
     2    39    28    1
     3    28    29   ar
     4    29    30   ar
     5    30    31   ar
     6    31    32   ar
     7    32    33   ar
     8    33    34   ar
     9    34    35   ar
    10    35    25    1
    11    25    26    1
    12    25    24    1
    13    24    23    1
    14     1    23    1
    15     1     2    1
    16     2     3    1
    17     3     4    1
    18     4     7    1
    19     7     8    1
    20     8     9    1
    21     9    11    1
    22    11    12   ar
    23    12    13   ar
    24    13    14    1
    25    13    15   ar
    26    15    16   ar
    27    16    17    1
    28    16    18   ar
    29    18    19    1
    30     9    10    1
    31     4     5    1
    32     5     6    1
    33     6    20    1
    34    20    21   ar
    35    20    22   ar
    36    35    36   ar
    37    36    37   ar
    38    37    28   ar
    39    36    31   ar
    40     6     1    1
    41    10     7    1
    42    18    11   ar
    43    26    27    1
