@<TRIPOS>MOLECULE
*****
 28 30 0 0 0
SMALL
GASTEIGER

@<TRIPOS>ATOM
      1 C         140.0560  140.3973  167.0053 C.ar    1  UNL1       -0.0000
      2 C         138.8375  139.5588  166.7562 C.ar    1  UNL1       -0.0003
      3 C         138.3923  139.2816  165.3508 C.ar    1  UNL1       -0.0042
      4 C         139.1656  139.8430  164.1946 C.ar    1  UNL1       -0.0186
      5 C         140.3841  140.6815  164.4438 C.ar    1  UNL1       -0.0042
      6 C         140.8293  140.9587  165.8491 C.ar    1  UNL1       -0.0003
      7 C         142.0599  141.9237  170.0720 C.ar    1  UNL1        0.0347
      8 C         141.3918  141.2289  171.2212 C.ar    1  UNL1        0.0028
      9 C         140.2785  140.2568  170.9652 C.ar    1  UNL1        0.0001
     10 C         139.8332  139.9796  169.5599 C.ar    1  UNL1        0.0000
     11 C         140.5013  140.6745  168.4107 C.ar    1  UNL1        0.0001
     12 C         141.6147  141.6465  168.6667 C.ar    1  UNL1        0.0028
     13 C         144.5643  142.5825  169.8623 C.3     1  UNL1        0.0773
     14 C         143.1733  142.8957  170.3280 C.2     1  UNL1        0.1735
     15 O         142.8957  144.1810  171.0497 O.2     1  UNL1       -0.2913
     16 C         138.7204  139.5658  162.7893 C.3     1  UNL1        0.0704
     17 C         139.2082  138.4499  161.9137 C.3     1  UNL1        0.1480
     18 O         138.4985  138.5503  160.5961 O.3     1  UNL1       -0.3519
     19 C         137.5720  139.7284  160.6573 C.3     1  UNL1        0.1598
     20 C         137.7091  140.3560  162.0128 C.3     1  UNL1        0.1111
     21 N         136.9655  141.5621  162.5053 N.3     1  UNL1       -0.1819
     22 H         136.4439  141.2693  163.3314 H       1  UNL1        0.1485
     23 S         137.7172  142.8033  162.8852 S.O2    1  UNL1        0.0391
     24 O         138.0019  143.0740  161.4375 O.2     1  UNL1       -0.1576
     25 O         137.4326  142.5326  164.3328 O.2     1  UNL1       -0.1576
     26 C         138.4689  144.0445  163.2651 C.3     1  UNL1        0.1457
     27 C         139.2163  144.8182  162.2197 C.3     1  UNL1        0.0270
     28 C         138.4732  144.5120  164.6903 C.3     1  UNL1        0.0270
@<TRIPOS>BOND
     1    13    14    1
     2    14    15    2
     3    14     7    1
     4     7     8   ar
     5     8     9   ar
     6     9    10   ar
     7    10    11   ar
     8    11     1    1
     9     1     2   ar
    10     2     3   ar
    11     3     4   ar
    12    16     4    1
    13    16    17    1
    14    17    18    1
    15    18    19    1
    16    19    20    1
    17    20    21    1
    18    21    23    1
    19    23    24    2
    20    23    25    2
    21    23    26    1
    22    26    27    1
    23    26    28    1
    24     4     5   ar
    25     5     6   ar
    26    11    12   ar
    27    12     7   ar
    28     6     1   ar
    29    20    16    1
    30    21    22    1
@<TRIPOS>MOLECULE
*****
 28 30 0 0 0
SMALL
GASTEIGER

@<TRIPOS>ATOM
      1 C         142.7670  140.0936  166.1844 C.ar    1  UNL1       -0.0000
      2 C         143.7133  139.0368  165.6969 C.ar    1  UNL1       -0.0003
      3 C         143.8981  138.8168  164.2247 C.ar    1  UNL1       -0.0042
      4 C         143.1367  139.6537  163.2399 C.ar    1  UNL1       -0.0186
      5 C         142.1904  140.7106  163.7274 C.ar    1  UNL1       -0.0042
      6 C         142.0056  140.9306  165.1996 C.ar    1  UNL1       -0.0003
      7 C         142.1524  141.9165  169.6556 C.ar    1  UNL1        0.0347
      8 C         142.2124  140.7536  170.6010 C.ar    1  UNL1        0.0028
      9 C         142.4573  139.3706  170.0743 C.ar    1  UNL1        0.0001
     10 C         142.6422  139.1506  168.6021 C.ar    1  UNL1        0.0000
     11 C         142.5821  140.3136  167.6567 C.ar    1  UNL1        0.0001
     12 C         142.3373  141.6965  168.1834 C.ar    1  UNL1        0.0028
     13 C         140.5832  143.9656  169.9536 C.3     1  UNL1        0.0773
     14 C         141.9075  143.2995  170.1823 C.2     1  UNL1        0.1735
     15 O         142.9869  144.0163  170.9379 O.2     1  UNL1       -0.2913
     16 C         143.3215  139.4338  161.7677 C.3     1  UNL1        0.0704
     17 C         144.1677  140.2669  160.8511 C.3     1  UNL1        0.1480
     18 O         144.0618  139.6902  159.4705 O.3     1  UNL1       -0.3519
     19 C         143.1501  138.5006  159.5338 C.3     1  UNL1        0.1598
     20 C         142.6927  138.3422  160.9535 C.3     1  UNL1        0.1111
     21 N         141.7685  137.2789  161.4686 N.3     1  UNL1       -0.1819
     22 H         142.3227  136.6770  162.0777 H       1  UNL1        0.1485
     23 S         140.5401  137.6618  162.2395 S.O2    1  UNL1        0.0391
     24 O         140.0299  138.4197  161.0498 O.2     1  UNL1       -0.1576
     25 O         141.0503  136.9039  163.4291 O.2     1  UNL1       -0.1576
     26 C         139.3117  138.0448  163.0103 C.3     1  UNL1        0.1457
     27 C         138.0821  138.5024  162.2830 C.3     1  UNL1        0.0270
     28 C         139.3127  137.9701  164.5084 C.3     1  UNL1        0.0270
@<TRIPOS>BOND
     1    13    14    1
     2    14    15    2
     3    14     7    1
     4     7     8   ar
     5     8     9   ar
     6     9    10   ar
     7    10    11   ar
     8    11     1    1
     9     1     2   ar
    10     2     3   ar
    11     3     4   ar
    12    16     4    1
    13    16    17    1
    14    17    18    1
    15    18    19    1
    16    19    20    1
    17    20    21    1
    18    21    23    1
    19    23    24    2
    20    23    25    2
    21    23    26    1
    22    26    27    1
    23    26    28    1
    24     4     5   ar
    25     5     6   ar
    26    11    12   ar
    27    12     7   ar
    28     6     1   ar
    29    20    16    1
    30    21    22    1
@<TRIPOS>MOLECULE
*****
 28 30 0 0 0
SMALL
GASTEIGER

@<TRIPOS>ATOM
      1 C         142.5272  140.8579  166.2003 C.ar    1  UNL1       -0.0000
      2 C         141.7938  141.4397  165.0283 C.ar    1  UNL1       -0.0003
      3 C         142.0001  140.8696  163.6562 C.ar    1  UNL1       -0.0042
      4 C         142.9398  139.7177  163.4562 C.ar    1  UNL1       -0.0186
      5 C         143.6733  139.1359  164.6283 C.ar    1  UNL1       -0.0042
      6 C         143.4670  139.7060  166.0003 C.ar    1  UNL1       -0.0003
      7 C         140.7810  141.8668  169.6183 C.ar    1  UNL1        0.0347
      8 C         141.9083  142.5682  170.3163 C.ar    1  UNL1        0.0028
      9 C         143.2419  142.6995  169.6423 C.ar    1  UNL1        0.0001
     10 C         143.4482  142.1294  168.2704 C.ar    1  UNL1        0.0000
     11 C         142.3209  141.4280  167.5723 C.ar    1  UNL1        0.0001
     12 C         140.9873  141.2967  168.2463 C.ar    1  UNL1        0.0028
     13 C         138.6561  140.4693  170.1490 C.3     1  UNL1        0.0773
     14 C         139.4474  141.7354  170.2923 C.2     1  UNL1        0.1735
     15 O         138.9051  142.8703  171.1095 O.2     1  UNL1       -0.2913
     16 C         143.1462  139.1476  162.0842 C.3     1  UNL1        0.0704
     17 C         144.0028  139.7381  161.0037 C.3     1  UNL1        0.1480
     18 O         143.9182  138.8424  159.8036 O.3     1  UNL1       -0.3519
     19 C         143.0092  137.6982  160.1423 C.3     1  UNL1        0.1598
     20 C         142.5321  137.8869  161.5519 C.3     1  UNL1        0.1111
     21 N         141.6038  136.9750  162.2980 N.3     1  UNL1       -0.1819
     22 H         142.1678  136.4846  162.9922 H       1  UNL1        0.1485
     23 S         140.4192  137.5407  163.0238 S.O2    1  UNL1        0.0391
     24 O         140.9724  137.0329  164.3223 O.2     1  UNL1       -0.1576
     25 O         139.8662  138.0485  161.7252 O.2     1  UNL1       -0.1576
     26 C         139.2348  138.1064  163.7495 C.3     1  UNL1        0.1457
     27 C         138.3906  139.1622  163.0992 C.3     1  UNL1        0.0270
     28 C         138.8943  137.6165  165.1258 C.3     1  UNL1        0.0270
@<TRIPOS>BOND
     1    13    14    1
     2    14    15    2
     3    14     7    1
     4     7     8   ar
     5     8     9   ar
     6     9    10   ar
     7    10    11   ar
     8    11     1    1
     9     1     2   ar
    10     2     3   ar
    11     3     4   ar
    12    16     4    1
    13    16    17    1
    14    17    18    1
    15    18    19    1
    16    19    20    1
    17    20    21    1
    18    21    23    1
    19    23    24    2
    20    23    25    2
    21    23    26    1
    22    26    27    1
    23    26    28    1
    24     4     5   ar
    25     5     6   ar
    26    11    12   ar
    27    12     7   ar
    28     6     1   ar
    29    20    16    1
    30    21    22    1
@<TRIPOS>MOLECULE
*****
 28 30 0 0 0
SMALL
GASTEIGER

@<TRIPOS>ATOM
      1 C         140.2029  142.0518  165.6983 C.ar    1  UNL1       -0.0000
      2 C         139.7915  143.4666  165.4169 C.ar    1  UNL1       -0.0003
      3 C         139.9186  144.0228  164.0296 C.ar    1  UNL1       -0.0042
      4 C         140.4570  143.1643  162.9238 C.ar    1  UNL1       -0.0186
      5 C         140.8683  141.7494  163.2052 C.ar    1  UNL1       -0.0042
      6 C         140.7413  141.1932  164.5924 C.ar    1  UNL1       -0.0003
      7 C         140.6507  141.6094  169.6167 C.ar    1  UNL1        0.0347
      8 C         139.8217  140.3832  169.8600 C.ar    1  UNL1        0.0028
      9 C         139.1198  139.7132  168.7162 C.ar    1  UNL1        0.0001
     10 C         139.2469  140.2694  167.3289 C.ar    1  UNL1        0.0000
     11 C         140.0758  141.4956  167.0856 C.ar    1  UNL1        0.0001
     12 C         140.7777  142.1655  168.2294 C.ar    1  UNL1        0.0028
     13 C         142.6335  143.0228  170.5226 C.3     1  UNL1        0.0773
     14 C         141.3526  142.2794  170.7605 C.2     1  UNL1        0.1735
     15 O         140.7736  142.2059  172.1423 O.2     1  UNL1       -0.2913
     16 C         140.5841  143.7204  161.5365 C.3     1  UNL1        0.0704
     17 C         139.6240  143.4973  160.4058 C.3     1  UNL1        0.1480
     18 O         140.1401  144.2364  159.2069 O.3     1  UNL1       -0.3519
     19 C         141.4192  144.9163  159.5967 C.3     1  UNL1        0.1598
     20 C         141.6935  144.5974  161.0365 C.3     1  UNL1        0.1111
     21 N         142.8706  145.0721  161.8358 N.3     1  UNL1       -0.1819
     22 H         142.5316  145.8159  162.4459 H       1  UNL1        0.1485
     23 S         143.6248  144.1095  162.7046 S.O2    1  UNL1        0.0391
     24 O         143.2876  144.9345  163.9111 O.2     1  UNL1       -0.1576
     25 O         143.9618  143.2847  161.4980 O.2     1  UNL1       -0.1576
     26 C         144.3788  143.1470  163.5733 C.3     1  UNL1        0.1457
     27 C         145.2817  142.1236  162.9508 C.3     1  UNL1        0.0270
     28 C         144.2301  143.2078  165.0647 C.3     1  UNL1        0.0270
@<TRIPOS>BOND
     1    13    14    1
     2    14    15    2
     3    14     7    1
     4     7     8   ar
     5     8     9   ar
     6     9    10   ar
     7    10    11   ar
     8    11     1    1
     9     1     2   ar
    10     2     3   ar
    11     3     4   ar
    12    16     4    1
    13    16    17    1
    14    17    18    1
    15    18    19    1
    16    19    20    1
    17    20    21    1
    18    21    23    1
    19    23    24    2
    20    23    25    2
    21    23    26    1
    22    26    27    1
    23    26    28    1
    24     4     5   ar
    25     5     6   ar
    26    11    12   ar
    27    12     7   ar
    28     6     1   ar
    29    20    16    1
    30    21    22    1
@<TRIPOS>MOLECULE
*****
 28 30 0 0 0
SMALL
GASTEIGER

@<TRIPOS>ATOM
      1 C         142.4350  140.3698  166.0698 C.ar    1  UNL1       -0.0000
      2 C         143.5318  139.5807  165.4183 C.ar    1  UNL1       -0.0003
      3 C         143.7279  139.6539  163.9329 C.ar    1  UNL1       -0.0042
      4 C         142.8272  140.5162  163.0991 C.ar    1  UNL1       -0.0186
      5 C         141.7304  141.3053  163.7507 C.ar    1  UNL1       -0.0042
      6 C         141.5343  141.2321  165.2360 C.ar    1  UNL1       -0.0003
      7 C         141.3837  141.3584  169.7668 C.ar    1  UNL1        0.0347
      8 C         141.8467  140.1503  170.5258 C.ar    1  UNL1        0.0028
      9 C         142.5058  139.0154  169.7995 C.ar    1  UNL1        0.0001
     10 C         142.7019  139.0885  168.3142 C.ar    1  UNL1        0.0000
     11 C         142.2389  140.2966  167.5552 C.ar    1  UNL1        0.0001
     12 C         141.5798  141.4316  168.2815 C.ar    1  UNL1        0.0028
     13 C         140.4423  143.7799  169.7754 C.3     1  UNL1        0.0773
     14 C         140.7246  142.4934  170.4930 C.2     1  UNL1        0.1735
     15 O         140.3479  142.3418  171.9370 O.2     1  UNL1       -0.2913
     16 C         143.0232  140.5894  161.6138 C.3     1  UNL1        0.0704
     17 C         142.2609  139.8090  160.5843 C.3     1  UNL1        0.1480
     18 O         142.7825  140.1931  159.2314 O.3     1  UNL1       -0.3519
     19 C         143.8672  141.2111  159.4248 C.3     1  UNL1        0.1598
     20 C         144.0160  141.4559  160.8972 C.3     1  UNL1        0.1111
     21 N         144.9870  142.4014  161.5400 N.3     1  UNL1       -0.1819
     22 H         145.2724  143.0649  160.8199 H       1  UNL1        0.1485
     23 S         144.5691  143.2097  162.7326 S.O2    1  UNL1        0.0391
     24 O         143.6249  143.9938  161.8702 O.2     1  UNL1       -0.1576
     25 O         145.5133  142.4256  163.5948 O.2     1  UNL1       -0.1576
     26 C         144.1513  144.0180  163.9250 C.3     1  UNL1        0.1457
     27 C         143.3644  145.2811  163.7365 C.3     1  UNL1        0.0270
     28 C         144.5204  143.5634  165.3059 C.3     1  UNL1        0.0270
@<TRIPOS>BOND
     1    13    14    1
     2    14    15    2
     3    14     7    1
     4     7     8   ar
     5     8     9   ar
     6     9    10   ar
     7    10    11   ar
     8    11     1    1
     9     1     2   ar
    10     2     3   ar
    11     3     4   ar
    12    16     4    1
    13    16    17    1
    14    17    18    1
    15    18    19    1
    16    19    20    1
    17    20    21    1
    18    21    23    1
    19    23    24    2
    20    23    25    2
    21    23    26    1
    22    26    27    1
    23    26    28    1
    24     4     5   ar
    25     5     6   ar
    26    11    12   ar
    27    12     7   ar
    28     6     1   ar
    29    20    16    1
    30    21    22    1
@<TRIPOS>MOLECULE
*****
 28 30 0 0 0
SMALL
GASTEIGER

@<TRIPOS>ATOM
      1 C         140.5068  141.9728  165.3261 C.ar    1  UNL1       -0.0000
      2 C         140.9629  140.9639  164.3142 C.ar    1  UNL1       -0.0003
      3 C         141.3221  141.4038  162.9258 C.ar    1  UNL1       -0.0042
      4 C         141.2250  142.8526  162.5494 C.ar    1  UNL1       -0.0186
      5 C         140.7688  143.8614  163.5614 C.ar    1  UNL1       -0.0042
      6 C         140.4097  143.4215  164.9497 C.ar    1  UNL1       -0.0003
      7 C         140.0616  141.9953  169.2696 C.ar    1  UNL1        0.0347
      8 C         139.4294  140.6532  169.4912 C.ar    1  UNL1        0.0028
      9 C         139.1563  139.7510  168.3244 C.ar    1  UNL1        0.0001
     10 C         139.5154  140.1908  166.9361 C.ar    1  UNL1        0.0000
     11 C         140.1476  141.5329  166.7145 C.ar    1  UNL1        0.0001
     12 C         140.4207  142.4351  167.8813 C.ar    1  UNL1        0.0028
     13 C         140.4542  144.3781  170.2277 C.3     1  UNL1        0.0773
     14 C         140.3346  142.8976  170.4364 C.2     1  UNL1        0.1735
     15 O         140.4882  142.3193  171.8119 O.2     1  UNL1       -0.2913
     16 C         141.5841  143.2925  161.1611 C.3     1  UNL1        0.0704
     17 C         142.9729  143.5000  160.6335 C.3     1  UNL1        0.1480
     18 O         142.8646  143.9379  159.2029 O.3     1  UNL1       -0.3519
     19 C         141.4089  144.0009  158.8464 C.3     1  UNL1        0.1598
     20 C         140.6176  143.6020  160.0566 C.3     1  UNL1        0.1111
     21 N         139.1222  143.5261  160.1465 N.3     1  UNL1       -0.1819
     22 H         138.7700  143.5130  159.1893 H       1  UNL1        0.1485
     23 S         138.4711  142.3804  160.8632 S.O2    1  UNL1        0.0391
     24 O         137.8382  143.3419  161.8249 O.2     1  UNL1       -0.1576
     25 O         139.1040  141.4191  159.9014 O.2     1  UNL1       -0.1576
     26 C         137.8200  141.2349  161.5798 C.3     1  UNL1        0.1457
     27 C         137.6023  139.9319  160.8692 C.3     1  UNL1        0.0270
     28 C         137.3865  141.3922  163.0072 C.3     1  UNL1        0.0270
@<TRIPOS>BOND
     1    13    14    1
     2    14    15    2
     3    14     7    1
     4     7     8   ar
     5     8     9   ar
     6     9    10   ar
     7    10    11   ar
     8    11     1    1
     9     1     2   ar
    10     2     3   ar
    11     3     4   ar
    12    16     4    1
    13    16    17    1
    14    17    18    1
    15    18    19    1
    16    19    20    1
    17    20    21    1
    18    21    23    1
    19    23    24    2
    20    23    25    2
    21    23    26    1
    22    26    27    1
    23    26    28    1
    24     4     5   ar
    25     5     6   ar
    26    11    12   ar
    27    12     7   ar
    28     6     1   ar
    29    20    16    1
    30    21    22    1
@<TRIPOS>MOLECULE
*****
 28 30 0 0 0
SMALL
GASTEIGER

@<TRIPOS>ATOM
      1 C         140.7048  140.7103  165.5973 C.ar    1  UNL1       -0.0000
      2 C         141.5564  141.4140  164.5826 C.ar    1  UNL1       -0.0003
      3 C         141.1103  141.4905  163.1525 C.ar    1  UNL1       -0.0042
      4 C         139.8125  140.8634  162.7372 C.ar    1  UNL1       -0.0186
      5 C         138.9609  140.1598  163.7519 C.ar    1  UNL1       -0.0042
      6 C         139.4070  140.0833  165.1820 C.ar    1  UNL1       -0.0003
      7 C         141.1281  141.5839  169.4454 C.ar    1  UNL1        0.0347
      8 C         142.0432  140.4807  169.8875 C.ar    1  UNL1        0.0028
      9 C         142.5121  139.4541  168.8996 C.ar    1  UNL1        0.0001
     10 C         142.0660  139.5306  167.4696 C.ar    1  UNL1        0.0000
     11 C         141.1510  140.6338  167.0274 C.ar    1  UNL1        0.0001
     12 C         140.6820  141.6605  168.0153 C.ar    1  UNL1        0.0028
     13 C         140.3673  144.0101  169.9792 C.3     1  UNL1        0.0773
     14 C         140.6591  142.6106  170.4333 C.2     1  UNL1        0.1735
     15 O         140.4818  142.2378  171.8754 O.2     1  UNL1       -0.2913
     16 C         139.3663  140.9400  161.3071 C.3     1  UNL1        0.0704
     17 C         139.8133  140.0385  160.1946 C.3     1  UNL1        0.1480
     18 O         139.1181  140.4728  158.9384 O.3     1  UNL1       -0.3519
     19 C         138.2414  141.6427  159.2746 C.3     1  UNL1        0.1598
     20 C         138.3949  141.9314  160.7385 C.3     1  UNL1        0.1111
     21 N         137.6990  143.0203  161.5001 N.3     1  UNL1       -0.1819
     22 H         136.9774  142.5707  162.0636 H       1  UNL1        0.1485
     23 S         138.4804  143.9067  162.4241 S.O2    1  UNL1        0.0391
     24 O         139.2932  144.3996  161.2638 O.2     1  UNL1       -0.1576
     25 O         137.6676  143.4136  163.5843 O.2     1  UNL1       -0.1576
     26 C         139.2618  144.7929  163.3481 C.3     1  UNL1        0.1457
     27 C         140.3403  145.6810  162.8018 C.3     1  UNL1        0.0270
     28 C         138.9649  144.7913  164.8184 C.3     1  UNL1        0.0270
@<TRIPOS>BOND
     1    13    14    1
     2    14    15    2
     3    14     7    1
     4     7     8   ar
     5     8     9   ar
     6     9    10   ar
     7    10    11   ar
     8    11     1    1
     9     1     2   ar
    10     2     3   ar
    11     3     4   ar
    12    16     4    1
    13    16    17    1
    14    17    18    1
    15    18    19    1
    16    19    20    1
    17    20    21    1
    18    21    23    1
    19    23    24    2
    20    23    25    2
    21    23    26    1
    22    26    27    1
    23    26    28    1
    24     4     5   ar
    25     5     6   ar
    26    11    12   ar
    27    12     7   ar
    28     6     1   ar
    29    20    16    1
    30    21    22    1
@<TRIPOS>MOLECULE
*****
 28 30 0 0 0
SMALL
GASTEIGER

@<TRIPOS>ATOM
      1 C         142.1328  141.6772  165.4797 C.ar    1  UNL1       -0.0000
      2 C         141.1333  141.1472  164.4948 C.ar    1  UNL1       -0.0003
      3 C         141.1960  141.5753  163.0584 C.ar    1  UNL1       -0.0042
      4 C         142.2583  142.5334  162.6071 C.ar    1  UNL1       -0.0186
      5 C         143.2578  143.0634  163.5921 C.ar    1  UNL1       -0.0042
      6 C         143.1950  142.6353  165.0283 C.ar    1  UNL1       -0.0003
      7 C         141.3929  141.7264  169.3784 C.ar    1  UNL1        0.0347
      8 C         141.9446  140.3932  169.7884 C.ar    1  UNL1        0.0028
      9 C         142.5589  139.4879  168.7622 C.ar    1  UNL1        0.0001
     10 C         142.6217  139.9159  167.3260 C.ar    1  UNL1        0.0000
     11 C         142.0701  141.2492  166.9160 C.ar    1  UNL1        0.0001
     12 C         141.4557  142.1544  167.9422 C.ar    1  UNL1        0.0028
     13 C         140.3347  144.0113  170.0181 C.3     1  UNL1        0.0773
     14 C         140.7785  142.6316  170.4046 C.2     1  UNL1        0.1735
     15 O         140.6079  142.1571  171.8173 O.2     1  UNL1       -0.2913
     16 C         142.3211  142.9614  161.1709 C.3     1  UNL1        0.0704
     17 C         142.9254  142.1786  160.0431 C.3     1  UNL1        0.1480
     18 O         142.7684  142.9808  158.7855 O.3     1  UNL1       -0.3519
     19 C         142.0669  144.2596  159.1360 C.3     1  UNL1        0.1598
     20 C         141.7905  144.2476  160.6103 C.3     1  UNL1        0.1111
     21 N         141.1040  145.3314  161.3874 N.3     1  UNL1       -0.1819
     22 H         140.6548  145.9431  160.7058 H       1  UNL1        0.1485
     23 S         140.0610  144.9785  162.4061 S.O2    1  UNL1        0.0391
     24 O         140.9555  145.4865  163.4978 O.2     1  UNL1       -0.1576
     25 O         139.1666  144.4706  161.3143 O.2     1  UNL1       -0.1576
     26 C         139.0181  144.6256  163.4247 C.3     1  UNL1        0.1457
     27 C         137.6961  144.0709  162.9835 C.3     1  UNL1        0.0270
     28 C         139.2971  144.8275  164.8847 C.3     1  UNL1        0.0270
@<TRIPOS>BOND
     1    13    14    1
     2    14    15    2
     3    14     7    1
     4     7     8   ar
     5     8     9   ar
     6     9    10   ar
     7    10    11   ar
     8    11     1    1
     9     1     2   ar
    10     2     3   ar
    11     3     4   ar
    12    16     4    1
    13    16    17    1
    14    17    18    1
    15    18    19    1
    16    19    20    1
    17    20    21    1
    18    21    23    1
    19    23    24    2
    20    23    25    2
    21    23    26    1
    22    26    27    1
    23    26    28    1
    24     4     5   ar
    25     5     6   ar
    26    11    12   ar
    27    12     7   ar
    28     6     1   ar
    29    20    16    1
    30    21    22    1
@<TRIPOS>MOLECULE
*****
 28 30 0 0 0
SMALL
GASTEIGER

@<TRIPOS>ATOM
      1 C         139.5395  140.3433  166.0146 C.ar    1  UNL1       -0.0000
      2 C         138.7968  139.1422  165.5091 C.ar    1  UNL1       -0.0003
      3 C         138.7907  138.8266  164.0426 C.ar    1  UNL1       -0.0042
      4 C         139.5273  139.7121  163.0818 C.ar    1  UNL1       -0.0186
      5 C         140.2701  140.9133  163.5874 C.ar    1  UNL1       -0.0042
      6 C         140.2762  141.2288  165.0538 C.ar    1  UNL1       -0.0003
      7 C         140.3108  142.1646  169.4553 C.ar    1  UNL1        0.0347
      8 C         139.5579  141.2903  170.4138 C.ar    1  UNL1        0.0028
      9 C         138.7989  140.1003  169.9059 C.ar    1  UNL1        0.0001
     10 C         138.7928  139.7847  168.4396 C.ar    1  UNL1        0.0000
     11 C         139.5456  140.6590  167.4811 C.ar    1  UNL1        0.0001
     12 C         140.3047  141.8489  167.9890 C.ar    1  UNL1        0.0028
     13 C         142.5350  143.2376  170.2625 C.3     1  UNL1        0.0773
     14 C         141.0698  143.3545  169.9632 C.2     1  UNL1        0.1735
     15 O         140.3637  144.6613  170.1718 O.2     1  UNL1       -0.2913
     16 C         139.5213  139.3965  161.6154 C.3     1  UNL1        0.0704
     17 C         138.6462  140.0373  160.5792 C.3     1  UNL1        0.1480
     18 O         138.9733  139.4216  159.2511 O.3     1  UNL1       -0.3519
     19 C         140.0506  138.4002  159.4665 C.3     1  UNL1        0.1598
     20 C         140.3892  138.3848  160.9277 C.3     1  UNL1        0.1111
     21 N         141.4156  137.5109  161.5856 N.3     1  UNL1       -0.1819
     22 H         142.0485  137.1955  160.8505 H       1  UNL1        0.1485
     23 S         142.2720  138.0594  162.6883 S.O2    1  UNL1        0.0391
     24 O         141.5862  137.1562  163.6701 O.2     1  UNL1       -0.1576
     25 O         142.9577  138.9626  161.7065 O.2     1  UNL1       -0.1576
     26 C         143.1282  138.6079  163.7910 C.3     1  UNL1        0.1457
     27 C         144.3600  139.3982  163.4617 C.3     1  UNL1        0.0270
     28 C         142.7529  138.3661  165.2229 C.3     1  UNL1        0.0270
@<TRIPOS>BOND
     1    13    14    1
     2    14    15    2
     3    14     7    1
     4     7     8   ar
     5     8     9   ar
     6     9    10   ar
     7    10    11   ar
     8    11     1    1
     9     1     2   ar
    10     2     3   ar
    11     3     4   ar
    12    16     4    1
    13    16    17    1
    14    17    18    1
    15    18    19    1
    16    19    20    1
    17    20    21    1
    18    21    23    1
    19    23    24    2
    20    23    25    2
    21    23    26    1
    22    26    27    1
    23    26    28    1
    24     4     5   ar
    25     5     6   ar
    26    11    12   ar
    27    12     7   ar
    28     6     1   ar
    29    20    16    1
    30    21    22    1
