@<TRIPOS>MOLECULE
*****
 29 33 0 0 0
SMALL
GASTEIGER

@<TRIPOS>ATOM
      1 O         137.2238  139.0444  161.3389 O.2     1  UNL1       -0.2523
      2 C         138.0786  140.2720  161.4501 C.2     1  UNL1        0.3072
      3 N         138.3610  141.1020  160.2331 N.am    1  UNL1       -0.2626
      4 C         137.7413  140.6169  158.9563 C.3     1  UNL1        0.0964
      5 C         137.8332  141.2174  157.5847 C.3     1  UNL1        0.0389
      6 C         138.5678  142.4514  157.1515 C.3     1  UNL1        0.0739
      7 N         139.3918  143.3896  157.9826 N.3     1  UNL1       -0.2725
      8 C         139.6847  143.3256  159.4524 C.3     1  UNL1        0.0939
      9 C         139.2260  142.3076  160.4539 C.3     1  UNL1        0.1122
     10 N         138.6510  140.6695  162.7784 N.am    1  UNL1       -0.2640
     11 C         139.5186  141.8643  163.0427 C.3     1  UNL1        0.0950
     12 C         139.8601  141.8752  164.5033 C.3     1  UNL1        0.0245
     13 C         139.2035  140.6871  165.1417 C.3     1  UNL1        0.0348
     14 C         138.4907  139.4641  165.6378 C.3     1  UNL1        0.0045
     15 C         138.5678  139.0874  167.0876 C.3     1  UNL1        0.0174
     16 C         139.3578  139.9337  168.0414 C.3     1  UNL1        0.0720
     17 N         140.0706  141.1568  167.5454 N.3     1  UNL1       -0.2737
     18 C         139.9934  141.5334  166.0955 C.3     1  UNL1        0.0737
     19 C         138.4562  139.9420  164.0757 C.3     1  UNL1        0.0962
     20 C         140.8605  142.0031  168.4992 C.3     1  UNL1        0.0625
     21 C         142.3040  141.6904  168.7606 C.3     1  UNL1        0.0481
     22 C         143.0940  142.5367  169.7144 C.3     1  UNL1        0.1435
     23 O         142.4404  143.6957  170.4068 O.3     1  UNL1       -0.3537
     24 C         140.9969  144.0084  170.1454 C.3     1  UNL1        0.1435
     25 C         140.2069  143.1621  169.1916 C.3     1  UNL1        0.0481
     26 C         140.0037  144.5446  157.2466 C.3     1  UNL1        0.0576
     27 C         140.2957  144.8502  155.8074 C.3     1  UNL1        0.0160
     28 C         140.8691  146.1778  156.2057 C.3     1  UNL1        0.0028
     29 C         140.5771  145.8722  157.6449 C.3     1  UNL1        0.0160
@<TRIPOS>BOND
     1     1     2    2
     2     2     3   am
     3     3     4    1
     4     4     5    1
     5     5     6    1
     6     6     7    1
     7     7    26    1
     8    26    27    1
     9    27    28    1
    10    28    29    1
    11     7     8    1
    12     8     9    1
    13     2    10   am
    14    10    11    1
    15    11    12    1
    16    12    13    1
    17    13    14    1
    18    14    15    1
    19    15    16    1
    20    16    17    1
    21    17    20    1
    22    20    21    1
    23    21    22    1
    24    22    23    1
    25    23    24    1
    26    24    25    1
    27    17    18    1
    28    13    19    1
    29     9     3    1
    30    19    10    1
    31    29    26    1
    32    18    13    1
    33    25    20    1
@<TRIPOS>MOLECULE
*****
 29 33 0 0 0
SMALL
GASTEIGER

@<TRIPOS>ATOM
      1 O         138.4989  137.8757  161.1654 O.2     1  UNL1       -0.2523
      2 C         139.6528  138.7789  161.4857 C.2     1  UNL1        0.3072
      3 N         140.6000  139.1989  160.4012 N.am    1  UNL1       -0.2626
      4 C         140.3033  138.6600  159.0332 C.3     1  UNL1        0.0964
      5 C         141.0519  138.8914  157.7541 C.3     1  UNL1        0.0389
      6 C         142.2823  139.7189  157.5273 C.3     1  UNL1        0.0739
      7 N         143.0679  140.5194  158.5234 N.3     1  UNL1       -0.2725
      8 C         142.8171  140.6900  159.9924 C.3     1  UNL1        0.0939
      9 C         141.7188  140.1024  160.8281 C.3     1  UNL1        0.1122
     10 N         139.8594  139.2621  162.8906 N.am    1  UNL1       -0.2640
     11 C         140.9624  140.1642  163.3595 C.3     1  UNL1        0.0950
     12 C         140.7841  140.3876  164.8320 C.3     1  UNL1        0.0245
     13 C         139.5709  139.6236  165.2733 C.3     1  UNL1        0.0348
     14 C         138.3428  138.8133  165.5652 C.3     1  UNL1        0.0045
     15 C         137.7970  138.7551  166.9611 C.3     1  UNL1        0.0174
     16 C         138.4792  139.5073  168.0651 C.3     1  UNL1        0.0720
     17 N         139.7073  140.3176  167.7732 N.3     1  UNL1       -0.2737
     18 C         140.2531  140.3757  166.3773 C.3     1  UNL1        0.0737
     19 C         138.9995  138.9280  164.0734 C.3     1  UNL1        0.0962
     20 C         140.3895  141.0697  168.8772 C.3     1  UNL1        0.0625
     21 C         141.0539  140.3221  169.9951 C.3     1  UNL1        0.0481
     22 C         141.7361  141.0742  171.0991 C.3     1  UNL1        0.1435
     23 O         141.7540  142.5740  171.0853 O.3     1  UNL1       -0.3537
     24 C         141.0896  143.3217  169.9674 C.3     1  UNL1        0.1435
     25 C         140.4074  142.5695  168.8634 C.3     1  UNL1        0.0481
     26 C         144.2621  141.2451  157.9784 C.3     1  UNL1        0.0576
     27 C         144.9900  142.5073  158.3350 C.3     1  UNL1        0.0160
     28 C         145.9511  142.2715  157.2076 C.3     1  UNL1        0.0028
     29 C         145.2232  141.0094  156.8510 C.3     1  UNL1        0.0160
@<TRIPOS>BOND
     1     1     2    2
     2     2     3   am
     3     3     4    1
     4     4     5    1
     5     5     6    1
     6     6     7    1
     7     7    26    1
     8    26    27    1
     9    27    28    1
    10    28    29    1
    11     7     8    1
    12     8     9    1
    13     2    10   am
    14    10    11    1
    15    11    12    1
    16    12    13    1
    17    13    14    1
    18    14    15    1
    19    15    16    1
    20    16    17    1
    21    17    20    1
    22    20    21    1
    23    21    22    1
    24    22    23    1
    25    23    24    1
    26    24    25    1
    27    17    18    1
    28    13    19    1
    29     9     3    1
    30    19    10    1
    31    29    26    1
    32    18    13    1
    33    25    20    1
@<TRIPOS>MOLECULE
*****
 29 33 0 0 0
SMALL
GASTEIGER

@<TRIPOS>ATOM
      1 O         143.6961  142.4690  158.8393 O.2     1  UNL1       -0.2523
      2 C         143.1483  141.1244  159.2157 C.2     1  UNL1        0.3072
      3 N         143.2861  139.9672  158.2713 N.am    1  UNL1       -0.2626
      4 C         143.9875  140.2621  156.9787 C.3     1  UNL1        0.0964
      5 C         144.2804  139.3307  155.8399 C.3     1  UNL1        0.0389
      6 C         143.9441  137.8744  155.7126 C.3     1  UNL1        0.0739
      7 N         143.2319  136.9899  156.6925 N.3     1  UNL1       -0.2725
      8 C         142.6801  137.3431  158.0419 C.3     1  UNL1        0.0939
      9 C         142.7042  138.6681  158.7445 C.3     1  UNL1        0.1122
     10 N         142.4626  140.9369  160.5366 N.am    1  UNL1       -0.2640
     11 C         141.8680  139.6581  161.0477 C.3     1  UNL1        0.0950
     12 C         141.2891  139.9262  162.4053 C.3     1  UNL1        0.0245
     13 C         141.5258  141.3707  162.7332 C.3     1  UNL1        0.0348
     14 C         141.8329  142.8268  162.9212 C.3     1  UNL1        0.0045
     15 C         141.4173  143.5242  164.1825 C.3     1  UNL1        0.0174
     16 C         140.6946  142.7654  165.2558 C.3     1  UNL1        0.0720
     17 N         140.3875  141.3093  165.0678 N.3     1  UNL1       -0.2737
     18 C         140.8031  140.6120  163.8065 C.3     1  UNL1        0.0737
     19 C         142.2511  141.9954  161.5783 C.3     1  UNL1        0.0962
     20 C         139.6648  140.5506  166.1411 C.3     1  UNL1        0.0625
     21 C         138.6470  139.5130  165.7705 C.3     1  UNL1        0.0481
     22 C         137.9243  138.7543  166.8438 C.3     1  UNL1        0.1435
     23 O         138.2194  139.0331  168.2877 O.3     1  UNL1       -0.3537
     24 C         139.2373  140.0706  168.6584 C.3     1  UNL1        0.1435
     25 C         139.9600  140.8294  167.5851 C.3     1  UNL1        0.0481
     26 C         143.0471  135.5635  156.2668 C.3     1  UNL1        0.0576
     27 C         141.9786  134.8043  155.5374 C.3     1  UNL1        0.0160
     28 C         142.7856  133.5463  155.6646 C.3     1  UNL1        0.0028
     29 C         143.8541  134.3055  156.3939 C.3     1  UNL1        0.0160
@<TRIPOS>BOND
     1     1     2    2
     2     2     3   am
     3     3     4    1
     4     4     5    1
     5     5     6    1
     6     6     7    1
     7     7    26    1
     8    26    27    1
     9    27    28    1
    10    28    29    1
    11     7     8    1
    12     8     9    1
    13     2    10   am
    14    10    11    1
    15    11    12    1
    16    12    13    1
    17    13    14    1
    18    14    15    1
    19    15    16    1
    20    16    17    1
    21    17    20    1
    22    20    21    1
    23    21    22    1
    24    22    23    1
    25    23    24    1
    26    24    25    1
    27    17    18    1
    28    13    19    1
    29     9     3    1
    30    19    10    1
    31    29    26    1
    32    18    13    1
    33    25    20    1
@<TRIPOS>MOLECULE
*****
 29 33 0 0 0
SMALL
GASTEIGER

@<TRIPOS>ATOM
      1 O         143.0561  143.1937  160.2153 O.2     1  UNL1       -0.2523
      2 C         142.5390  141.9484  160.8724 C.2     1  UNL1        0.3072
      3 N         142.0195  142.0026  162.2785 N.am    1  UNL1       -0.2626
      4 C         142.0619  143.3499  162.9364 C.3     1  UNL1        0.0964
      5 C         141.6215  143.7298  164.3191 C.3     1  UNL1        0.0389
      6 C         141.0301  142.8561  165.3854 C.3     1  UNL1        0.0739
      7 N         140.7329  141.3867  165.3323 N.3     1  UNL1       -0.2725
      8 C         140.9538  140.4282  164.1998 C.3     1  UNL1        0.0939
      9 C         141.5263  140.7023  162.8408 C.3     1  UNL1        0.1122
     10 N         142.5414  140.6488  160.1234 N.am    1  UNL1       -0.2640
     11 C         142.0586  139.3286  160.6468 C.3     1  UNL1        0.0950
     12 C         142.2458  138.3051  159.5663 C.3     1  UNL1        0.0245
     13 C         142.8443  138.9928  158.3750 C.3     1  UNL1        0.0348
     14 C         143.4392  139.8125  157.2687 C.3     1  UNL1        0.0045
     15 C         143.7929  139.1654  155.9626 C.3     1  UNL1        0.0174
     16 C         143.5517  137.6984  155.7628 C.3     1  UNL1        0.0720
     17 N         142.9567  136.8787  156.8691 N.3     1  UNL1       -0.2737
     18 C         142.6030  137.5259  158.1752 C.3     1  UNL1        0.0737
     19 C         143.0270  140.4413  158.7193 C.3     1  UNL1        0.0962
     20 C         142.7155  135.4118  156.6693 C.3     1  UNL1        0.0625
     21 C         141.7168  134.9478  155.6508 C.3     1  UNL1        0.0481
     22 C         141.4755  133.4809  155.4510 C.3     1  UNL1        0.1435
     23 O         142.2330  132.4779  156.2697 O.3     1  UNL1       -0.3537
     24 C         143.2317  132.9418  157.2881 C.3     1  UNL1        0.1435
     25 C         143.4730  134.4088  157.4879 C.3     1  UNL1        0.0481
     26 C         140.1359  140.7982  166.5761 C.3     1  UNL1        0.0576
     27 C         140.2281  141.1006  168.0424 C.3     1  UNL1        0.0160
     28 C         139.2917  139.9659  168.3353 C.3     1  UNL1        0.0028
     29 C         139.1995  139.6636  166.8690 C.3     1  UNL1        0.0160
@<TRIPOS>BOND
     1     1     2    2
     2     2     3   am
     3     3     4    1
     4     4     5    1
     5     5     6    1
     6     6     7    1
     7     7    26    1
     8    26    27    1
     9    27    28    1
    10    28    29    1
    11     7     8    1
    12     8     9    1
    13     2    10   am
    14    10    11    1
    15    11    12    1
    16    12    13    1
    17    13    14    1
    18    14    15    1
    19    15    16    1
    20    16    17    1
    21    17    20    1
    22    20    21    1
    23    21    22    1
    24    22    23    1
    25    23    24    1
    26    24    25    1
    27    17    18    1
    28    13    19    1
    29     9     3    1
    30    19    10    1
    31    29    26    1
    32    18    13    1
    33    25    20    1
@<TRIPOS>MOLECULE
*****
 29 33 0 0 0
SMALL
GASTEIGER

@<TRIPOS>ATOM
      1 O         143.8377  138.1443  160.6813 O.2     1  UNL1       -0.2523
      2 C         143.3658  139.5501  160.9070 C.2     1  UNL1        0.3072
      3 N         143.1401  140.4623  159.7379 N.am    1  UNL1       -0.2626
      4 C         143.4156  139.8700  158.3876 C.3     1  UNL1        0.0964
      5 C         143.2878  140.5152  157.0395 C.3     1  UNL1        0.0389
      6 C         142.8528  141.9122  156.7088 C.3     1  UNL1        0.0739
      7 N         142.4383  143.0089  157.6445 N.3     1  UNL1       -0.2725
      8 C         142.3563  142.9795  159.1420 C.3     1  UNL1        0.0939
      9 C         142.6686  141.8462  160.0736 C.3     1  UNL1        0.1122
     10 N         143.1196  140.0438  162.3019 N.am    1  UNL1       -0.2640
     11 C         142.6491  141.4167  162.6811 C.3     1  UNL1        0.0950
     12 C         142.5395  141.4726  164.1761 C.3     1  UNL1        0.0245
     13 C         142.9423  140.1343  164.7208 C.3     1  UNL1        0.0348
     14 C         143.3685  138.7517  165.1167 C.3     1  UNL1        0.0045
     15 C         143.4061  138.3645  166.5653 C.3     1  UNL1        0.0174
     16 C         143.0175  139.3598  167.6181 C.3     1  UNL1        0.0720
     17 N         142.5912  140.7424  167.2222 N.3     1  UNL1       -0.2737
     18 C         142.5536  141.1296  165.7736 C.3     1  UNL1        0.0737
     19 C         143.3008  139.2512  163.5625 C.3     1  UNL1        0.0962
     20 C         142.2025  141.7377  168.2749 C.3     1  UNL1        0.0625
     21 C         140.8464  142.3776  168.2379 C.3     1  UNL1        0.0481
     22 C         140.4577  143.3729  169.2906 C.3     1  UNL1        0.1435
     23 O         141.4251  143.7283  170.3804 O.3     1  UNL1       -0.3537
     24 C         142.7812  143.0884  170.4175 C.3     1  UNL1        0.1435
     25 C         143.1699  142.0931  169.3648 C.3     1  UNL1        0.0481
     26 C         142.0550  144.3066  156.9970 C.3     1  UNL1        0.0576
     27 C         141.5290  144.7050  155.6499 C.3     1  UNL1        0.0160
     28 C         141.5130  146.1417  156.0811 C.3     1  UNL1        0.0028
     29 C         142.0391  145.7432  157.4282 C.3     1  UNL1        0.0160
@<TRIPOS>BOND
     1     1     2    2
     2     2     3   am
     3     3     4    1
     4     4     5    1
     5     5     6    1
     6     6     7    1
     7     7    26    1
     8    26    27    1
     9    27    28    1
    10    28    29    1
    11     7     8    1
    12     8     9    1
    13     2    10   am
    14    10    11    1
    15    11    12    1
    16    12    13    1
    17    13    14    1
    18    14    15    1
    19    15    16    1
    20    16    17    1
    21    17    20    1
    22    20    21    1
    23    21    22    1
    24    22    23    1
    25    23    24    1
    26    24    25    1
    27    17    18    1
    28    13    19    1
    29     9     3    1
    30    19    10    1
    31    29    26    1
    32    18    13    1
    33    25    20    1
@<TRIPOS>MOLECULE
*****
 29 33 0 0 0
SMALL
GASTEIGER

@<TRIPOS>ATOM
      1 O         141.7480  145.1521  159.0970 O.2     1  UNL1       -0.2523
      2 C         140.6137  144.1801  159.2329 C.2     1  UNL1        0.3072
      3 N         139.7278  143.8921  158.0573 N.am    1  UNL1       -0.2626
      4 C         140.0626  144.6286  156.7942 C.3     1  UNL1        0.0964
      5 C         139.3765  144.5606  155.4620 C.3     1  UNL1        0.0389
      6 C         138.1861  143.7392  155.0640 C.3     1  UNL1        0.0739
      7 N         137.3878  142.7831  155.8998 N.3     1  UNL1       -0.2725
      8 C         137.5827  142.4122  157.3401 C.3     1  UNL1        0.0939
      9 C         138.6240  142.9057  158.3003 C.3     1  UNL1        0.1122
     10 N         140.3653  143.4961  160.5446 N.am    1  UNL1       -0.2640
     11 C         139.2756  142.5055  160.8300 C.3     1  UNL1        0.0950
     12 C         139.3998  142.0798  162.2629 C.3     1  UNL1        0.0245
     13 C         140.5663  142.8073  162.8632 C.3     1  UNL1        0.0348
     14 C         141.7522  143.6023  163.3230 C.3     1  UNL1        0.0045
     15 C         142.2368  143.4765  164.7370 C.3     1  UNL1        0.0174
     16 C         141.5355  142.5557  165.6911 C.3     1  UNL1        0.0720
     17 N         140.3496  141.7607  165.2313 N.3     1  UNL1       -0.2737
     18 C         139.8649  141.8865  163.8173 C.3     1  UNL1        0.0737
     19 C         141.1629  143.6826  161.8012 C.3     1  UNL1        0.0962
     20 C         139.6482  140.8400  166.1854 C.3     1  UNL1        0.0625
     21 C         138.6253  139.8687  165.6753 C.3     1  UNL1        0.0481
     22 C         137.9239  138.9480  166.6294 C.3     1  UNL1        0.1435
     23 O         138.2456  138.9985  168.0936 O.3     1  UNL1       -0.3537
     24 C         139.2685  139.9697  168.6037 C.3     1  UNL1        0.1435
     25 C         139.9698  140.8905  167.6496 C.3     1  UNL1        0.0481
     26 C         136.2432  142.1089  155.2032 C.3     1  UNL1        0.0576
     27 C         135.7076  142.1063  153.8020 C.3     1  UNL1        0.0160
     28 C         134.6246  141.1554  154.2178 C.3     1  UNL1        0.0028
     29 C         135.1602  141.1579  155.6189 C.3     1  UNL1        0.0160
@<TRIPOS>BOND
     1     1     2    2
     2     2     3   am
     3     3     4    1
     4     4     5    1
     5     5     6    1
     6     6     7    1
     7     7    26    1
     8    26    27    1
     9    27    28    1
    10    28    29    1
    11     7     8    1
    12     8     9    1
    13     2    10   am
    14    10    11    1
    15    11    12    1
    16    12    13    1
    17    13    14    1
    18    14    15    1
    19    15    16    1
    20    16    17    1
    21    17    20    1
    22    20    21    1
    23    21    22    1
    24    22    23    1
    25    23    24    1
    26    24    25    1
    27    17    18    1
    28    13    19    1
    29     9     3    1
    30    19    10    1
    31    29    26    1
    32    18    13    1
    33    25    20    1
@<TRIPOS>MOLECULE
*****
 29 33 0 0 0
SMALL
GASTEIGER

@<TRIPOS>ATOM
      1 O         141.5841  145.2143  163.1301 O.2     1  UNL1       -0.2523
      2 C         140.7615  144.0200  162.7468 C.2     1  UNL1        0.3072
      3 N         140.3935  142.9993  163.7824 N.am    1  UNL1       -0.2626
      4 C         140.8982  143.2678  165.1691 C.3     1  UNL1        0.0964
      5 C         140.7035  142.4483  166.4104 C.3     1  UNL1        0.0389
      6 C         139.9560  141.1578  166.5713 C.3     1  UNL1        0.0739
      7 N         139.2185  140.3681  165.5308 N.3     1  UNL1       -0.2725
      8 C         139.0464  140.6739  164.0724 C.3     1  UNL1        0.0939
      9 C         139.5693  141.8448  163.2943 C.3     1  UNL1        0.1122
     10 N         140.3068  143.8465  161.3280 N.am    1  UNL1       -0.2640
     11 C         139.4834  142.7099  160.7987 C.3     1  UNL1        0.0950
     12 C         139.2634  142.9401  159.3329 C.3     1  UNL1        0.0245
     13 C         139.9509  144.2191  158.9562 C.3     1  UNL1        0.0348
     14 C         140.6821  145.5090  158.7299 C.3     1  UNL1        0.0045
     15 C         140.7183  146.1204  157.3607 C.3     1  UNL1        0.0174
     16 C         140.0233  145.4417  156.2177 C.3     1  UNL1        0.0720
     17 N         139.2921  144.1517  156.4439 N.3     1  UNL1       -0.2737
     18 C         139.2559  143.5404  157.8132 C.3     1  UNL1        0.0737
     19 C         140.5957  144.7792  160.1892 C.3     1  UNL1        0.0962
     20 C         138.5972  143.4731  155.3009 C.3     1  UNL1        0.0625
     21 C         139.2770  142.3556  154.5668 C.3     1  UNL1        0.0481
     22 C         138.5821  141.6769  153.4238 C.3     1  UNL1        0.1435
     23 O         137.2072  142.1158  153.0149 O.3     1  UNL1       -0.3537
     24 C         136.5274  143.2333  153.7490 C.3     1  UNL1        0.1435
     25 C         137.2224  143.9119  154.8920 C.3     1  UNL1        0.0481
     26 C         138.5670  139.1058  166.0125 C.3     1  UNL1        0.0576
     27 C         138.5460  137.6794  165.5489 C.3     1  UNL1        0.0160
     28 C         137.6457  137.3205  166.6937 C.3     1  UNL1        0.0028
     29 C         137.6666  138.7469  167.1574 C.3     1  UNL1        0.0160
@<TRIPOS>BOND
     1     1     2    2
     2     2     3   am
     3     3     4    1
     4     4     5    1
     5     5     6    1
     6     6     7    1
     7     7    26    1
     8    26    27    1
     9    27    28    1
    10    28    29    1
    11     7     8    1
    12     8     9    1
    13     2    10   am
    14    10    11    1
    15    11    12    1
    16    12    13    1
    17    13    14    1
    18    14    15    1
    19    15    16    1
    20    16    17    1
    21    17    20    1
    22    20    21    1
    23    21    22    1
    24    22    23    1
    25    23    24    1
    26    24    25    1
    27    17    18    1
    28    13    19    1
    29     9     3    1
    30    19    10    1
    31    29    26    1
    32    18    13    1
    33    25    20    1
@<TRIPOS>MOLECULE
*****
 29 33 0 0 0
SMALL
GASTEIGER

@<TRIPOS>ATOM
      1 O         143.9051  143.4089  160.9865 O.2     1  UNL1       -0.2523
      2 C         143.1082  142.1526  161.1779 C.2     1  UNL1        0.3072
      3 N         142.3102  141.9545  162.4324 N.am    1  UNL1       -0.2626
      4 C         142.3778  143.0724  163.4301 C.3     1  UNL1        0.0964
      5 C         141.7020  143.1766  164.7653 C.3     1  UNL1        0.0389
      6 C         140.7916  142.1885  165.4323 C.3     1  UNL1        0.0739
      7 N         140.3322  140.8522  164.9290 N.3     1  UNL1       -0.2725
      8 C         140.6697  140.1740  163.6343 C.3     1  UNL1        0.0939
      9 C         141.5500  140.6645  162.5233 C.3     1  UNL1        0.1122
     10 N         143.1094  141.0944  160.1148 N.am    1  UNL1       -0.2640
     11 C         142.3651  139.7930  160.1653 C.3     1  UNL1        0.0950
     12 C         142.6507  139.0461  158.8962 C.3     1  UNL1        0.0245
     13 C         143.5716  139.8859  158.0613 C.3     1  UNL1        0.0348
     14 C         144.4872  140.8316  157.3422 C.3     1  UNL1        0.0045
     15 C         145.0294  140.4691  155.9915 C.3     1  UNL1        0.0174
     16 C         144.6559  139.1609  155.3598 C.3     1  UNL1        0.0720
     17 N         143.7403  138.2151  156.0789 N.3     1  UNL1       -0.2737
     18 C         143.1981  138.5776  157.4297 C.3     1  UNL1        0.0737
     19 C         143.8550  141.1518  158.8145 C.3     1  UNL1        0.0962
     20 C         143.3668  136.9069  155.4472 C.3     1  UNL1        0.0625
     21 C         143.8553  135.6199  156.0430 C.3     1  UNL1        0.0481
     22 C         143.4818  134.3116  155.4113 C.3     1  UNL1        0.1435
     23 O         142.6199  134.2904  154.1839 O.3     1  UNL1       -0.3537
     24 C         142.1314  135.5774  153.5882 C.3     1  UNL1        0.1435
     25 C         142.5049  136.8856  154.2198 C.3     1  UNL1        0.0481
     26 C         139.4139  140.0940  165.8410 C.3     1  UNL1        0.0576
     27 C         138.1901  139.2480  165.6497 C.3     1  UNL1        0.0160
     28 C         138.1151  139.0216  167.1306 C.3     1  UNL1        0.0028
     29 C         139.3389  139.8676  167.3219 C.3     1  UNL1        0.0160
@<TRIPOS>BOND
     1     1     2    2
     2     2     3   am
     3     3     4    1
     4     4     5    1
     5     5     6    1
     6     6     7    1
     7     7    26    1
     8    26    27    1
     9    27    28    1
    10    28    29    1
    11     7     8    1
    12     8     9    1
    13     2    10   am
    14    10    11    1
    15    11    12    1
    16    12    13    1
    17    13    14    1
    18    14    15    1
    19    15    16    1
    20    16    17    1
    21    17    20    1
    22    20    21    1
    23    21    22    1
    24    22    23    1
    25    23    24    1
    26    24    25    1
    27    17    18    1
    28    13    19    1
    29     9     3    1
    30    19    10    1
    31    29    26    1
    32    18    13    1
    33    25    20    1
@<TRIPOS>MOLECULE
*****
 29 33 0 0 0
SMALL
GASTEIGER

@<TRIPOS>ATOM
      1 O         139.3641  142.2240  156.0186 O.2     1  UNL1       -0.2523
      2 C         140.2667  141.7066  157.0991 C.2     1  UNL1        0.3072
      3 N         140.6786  142.6058  158.2267 N.am    1  UNL1       -0.2626
      4 C         140.1326  144.0020  158.1785 C.3     1  UNL1        0.0964
      5 C         140.3552  145.1272  159.1451 C.3     1  UNL1        0.0389
      6 C         141.1789  145.1340  160.3988 C.3     1  UNL1        0.0739
      7 N         141.9833  144.0173  160.9954 N.3     1  UNL1       -0.2725
      8 C         142.1627  142.6180  160.4857 C.3     1  UNL1        0.0939
      9 C         141.5821  141.9898  159.2536 C.3     1  UNL1        0.1122
     10 N         140.7573  140.2899  157.0520 N.am    1  UNL1       -0.2640
     11 C         141.6598  139.6355  158.0557 C.3     1  UNL1        0.0950
     12 C         141.8919  138.2200  157.6169 C.3     1  UNL1        0.0245
     13 C         141.1329  137.9995  156.3419 C.3     1  UNL1        0.0348
     14 C         140.3268  137.9284  155.0789 C.3     1  UNL1        0.0045
     15 C         140.2777  136.6527  154.2915 C.3     1  UNL1        0.0174
     16 C         141.0347  135.4481  154.7670 C.3     1  UNL1        0.0720
     17 N         141.8407  135.5193  156.0299 N.3     1  UNL1       -0.2737
     18 C         141.8899  136.7950  156.8174 C.3     1  UNL1        0.0737
     19 C         140.4317  139.2788  155.9928 C.3     1  UNL1        0.0962
     20 C         142.5977  134.3147  156.5054 C.3     1  UNL1        0.0625
     21 C         143.7174  134.4734  157.4908 C.3     1  UNL1        0.0481
     22 C         144.4744  133.2688  157.9662 C.3     1  UNL1        0.1435
     23 O         144.1116  131.9056  157.4564 O.3     1  UNL1       -0.3537
     24 C         142.9918  131.7470  156.4710 C.3     1  UNL1        0.1435
     25 C         142.2349  132.9515  155.9955 C.3     1  UNL1        0.0481
     26 C         142.7034  144.3431  162.2702 C.3     1  UNL1        0.0576
     27 C         144.0986  144.1393  162.7822 C.3     1  UNL1        0.0160
     28 C         143.7220  144.8038  164.0731 C.3     1  UNL1        0.0028
     29 C         142.3268  145.0077  163.5612 C.3     1  UNL1        0.0160
@<TRIPOS>BOND
     1     1     2    2
     2     2     3   am
     3     3     4    1
     4     4     5    1
     5     5     6    1
     6     6     7    1
     7     7    26    1
     8    26    27    1
     9    27    28    1
    10    28    29    1
    11     7     8    1
    12     8     9    1
    13     2    10   am
    14    10    11    1
    15    11    12    1
    16    12    13    1
    17    13    14    1
    18    14    15    1
    19    15    16    1
    20    16    17    1
    21    17    20    1
    22    20    21    1
    23    21    22    1
    24    22    23    1
    25    23    24    1
    26    24    25    1
    27    17    18    1
    28    13    19    1
    29     9     3    1
    30    19    10    1
    31    29    26    1
    32    18    13    1
    33    25    20    1
