@<TRIPOS>MOLECULE
*****
 29 32 0 0 0
SMALL
GASTEIGER

@<TRIPOS>ATOM
      1 C         140.9295  145.3528  158.6157 C.ar    1  UNL1        0.1680
      2 N         142.1798  144.8808  159.2968 N.ar    1  UNL1       -0.2213
      3 C         141.8064  144.3938  160.6656 C.ar    1  UNL1        0.0989
      4 C         140.3254  144.5648  160.8304 C.ar    1  UNL1        0.0760
      5 N         139.7834  145.1575  159.5636 N.ar    1  UNL1       -0.3324
      6 H         138.8409  145.3793  159.3854 H       1  UNL1        0.1679
      7 C         142.7488  143.8341  161.6897 C.ar    1  UNL1        0.0193
      8 C         143.3402  142.4690  161.4980 C.ar    1  UNL1        0.0038
      9 C         144.2825  141.9093  162.5221 C.ar    1  UNL1        0.0297
     10 C         144.6334  142.7147  163.7379 C.ar    1  UNL1        0.1401
     11 F         145.5757  142.1550  164.7621 F       1  UNL1       -0.2042
     12 C         144.0419  144.0798  163.9297 C.ar    1  UNL1        0.0297
     13 C         143.0997  144.6395  162.9056 C.ar    1  UNL1        0.0038
     14 C         139.5265  144.2061  162.0483 C.ar    1  UNL1        0.0214
     15 C         139.4961  145.1352  163.2256 C.ar    1  UNL1        0.0222
     16 C         138.6972  144.7766  164.4435 C.ar    1  UNL1        0.1004
     17 N         137.9288  143.4889  164.4841 N.ar    1  UNL1       -0.2291
     18 C         137.9594  142.5599  163.3068 C.ar    1  UNL1        0.1322
     19 C         138.7582  142.9186  162.0890 C.ar    1  UNL1        0.0359
     20 N         137.1910  141.2723  163.3474 N.pl3   1  UNL1       -0.2979
     21 H         136.2482  141.2525  163.0647 H       1  UNL1        0.1536
     22 C         137.8592  140.0147  163.8185 C.ar    1  UNL1        0.0494
     23 C         138.1072  139.8003  165.2823 C.ar    1  UNL1        0.0146
     24 C         138.7754  138.5427  165.7534 C.ar    1  UNL1        0.0013
     25 C         139.1957  137.4995  164.7609 C.ar    1  UNL1        0.0001
     26 C         138.9478  137.7140  163.2972 C.ar    1  UNL1        0.0013
     27 C         138.2795  138.9716  162.8259 C.ar    1  UNL1        0.0146
     28 C         139.6049  146.6517  156.7968 C.3     1  UNL1        0.0772
     29 S         140.8408  145.9204  157.2301 S.3     1  UNL1       -0.0766
@<TRIPOS>BOND
     1    28    29    1
     2    29     1    1
     3     1     2   ar
     4     2     3   ar
     5     3     7    1
     6     7     8   ar
     7     8     9   ar
     8     9    10   ar
     9    10    11    1
    10    10    12   ar
    11    12    13   ar
    12     3     4   ar
    13     4    14    1
    14    14    15   ar
    15    15    16   ar
    16    16    17   ar
    17    17    18   ar
    18    18    20    1
    19    20    22    1
    20    22    23   ar
    21    23    24   ar
    22    24    25   ar
    23    25    26   ar
    24    26    27   ar
    25    18    19   ar
    26     4     5   ar
    27     5     1   ar
    28    13     7   ar
    29    19    14   ar
    30    27    22   ar
    31    20    21    1
    32     5     6    1
@<TRIPOS>MOLECULE
*****
 29 32 0 0 0
SMALL
GASTEIGER

@<TRIPOS>ATOM
      1 C         140.5492  140.1214  169.2221 C.ar    1  UNL1        0.1680
      2 N         141.8266  140.4467  168.5062 N.ar    1  UNL1       -0.2213
      3 C         141.5961  140.2552  167.0365 C.ar    1  UNL1        0.0989
      4 C         140.1762  139.8115  166.8439 C.ar    1  UNL1        0.0760
      5 N         139.5292  139.7288  168.1946 N.ar    1  UNL1       -0.3324
      6 H         138.5985  139.4635  168.3752 H       1  UNL1        0.1679
      7 C         142.6079  140.4697  165.9500 C.ar    1  UNL1        0.0193
      8 C         143.2516  139.2914  165.2813 C.ar    1  UNL1        0.0038
      9 C         144.2633  139.5060  164.1949 C.ar    1  UNL1        0.0297
     10 C         144.6314  140.8989  163.7772 C.ar    1  UNL1        0.1401
     11 F         145.6432  141.1134  162.6907 F       1  UNL1       -0.2042
     12 C         143.9877  142.0772  164.4459 C.ar    1  UNL1        0.0297
     13 C         142.9759  141.8626  165.5323 C.ar    1  UNL1        0.0038
     14 C         139.5188  139.5045  165.5311 C.ar    1  UNL1        0.0214
     15 C         139.5395  138.1052  164.9911 C.ar    1  UNL1        0.0222
     16 C         138.8820  137.7981  163.6783 C.ar    1  UNL1        0.1004
     17 N         138.2038  138.8903  162.9055 N.ar    1  UNL1       -0.2291
     18 C         138.1831  140.2896  163.4455 C.ar    1  UNL1        0.1322
     19 C         138.8406  140.5966  164.7583 C.ar    1  UNL1        0.0359
     20 N         137.5050  141.3818  162.6727 N.pl3   1  UNL1       -0.2979
     21 H         136.5709  141.2720  162.3817 H       1  UNL1        0.1536
     22 C         138.2500  142.6413  162.3433 C.ar    1  UNL1        0.0494
     23 C         138.0668  143.8647  163.1918 C.ar    1  UNL1        0.0146
     24 C         138.8118  145.1242  162.8624 C.ar    1  UNL1        0.0013
     25 C         139.7399  145.1605  161.6846 C.ar    1  UNL1        0.0001
     26 C         139.9231  143.9371  160.8362 C.ar    1  UNL1        0.0013
     27 C         139.1781  142.6775  161.1655 C.ar    1  UNL1        0.0146
     28 C         141.0051  141.2399  171.5223 C.3     1  UNL1        0.0772
     29 S         140.3303  140.1785  170.7049 S.3     1  UNL1       -0.0766
@<TRIPOS>BOND
     1    28    29    1
     2    29     1    1
     3     1     2   ar
     4     2     3   ar
     5     3     7    1
     6     7     8   ar
     7     8     9   ar
     8     9    10   ar
     9    10    11    1
    10    10    12   ar
    11    12    13   ar
    12     3     4   ar
    13     4    14    1
    14    14    15   ar
    15    15    16   ar
    16    16    17   ar
    17    17    18   ar
    18    18    20    1
    19    20    22    1
    20    22    23   ar
    21    23    24   ar
    22    24    25   ar
    23    25    26   ar
    24    26    27   ar
    25    18    19   ar
    26     4     5   ar
    27     5     1   ar
    28    13     7   ar
    29    19    14   ar
    30    27    22   ar
    31    20    21    1
    32     5     6    1
@<TRIPOS>MOLECULE
*****
 29 32 0 0 0
SMALL
GASTEIGER

@<TRIPOS>ATOM
      1 C         140.2391  138.4827  159.4047 C.ar    1  UNL1        0.1680
      2 N         139.2652  138.3418  160.5367 N.ar    1  UNL1       -0.2213
      3 C         139.9549  138.7705  161.7979 C.ar    1  UNL1        0.0989
      4 C         141.3552  139.1764  161.4453 C.ar    1  UNL1        0.0760
      5 N         141.5309  138.9986  159.9663 N.ar    1  UNL1       -0.3324
      6 H         142.3502  139.1873  159.4541 H       1  UNL1        0.1679
      7 C         139.3504  138.7899  163.1706 C.ar    1  UNL1        0.0193
      8 C         138.7493  140.0549  163.7076 C.ar    1  UNL1        0.0038
      9 C         138.1449  140.0742  165.0803 C.ar    1  UNL1        0.0297
     10 C         138.1416  138.8286  165.9159 C.ar    1  UNL1        0.1401
     11 F         137.5371  138.8480  167.2886 F       1  UNL1       -0.2042
     12 C         138.7427  137.5636  165.3789 C.ar    1  UNL1        0.0297
     13 C         139.3471  137.5442  164.0063 C.ar    1  UNL1        0.0038
     14 C         142.3970  139.6730  162.4035 C.ar    1  UNL1        0.0214
     15 C         143.6169  138.8451  162.6802 C.ar    1  UNL1        0.0222
     16 C         144.6587  139.3417  163.6384 C.ar    1  UNL1        0.1004
     17 N         144.4806  140.6662  164.3199 N.ar    1  UNL1       -0.2291
     18 C         143.2607  141.4939  164.0431 C.ar    1  UNL1        0.1322
     19 C         142.2190  140.9974  163.0849 C.ar    1  UNL1        0.0359
     20 N         143.0826  142.8183  164.7244 N.pl3   1  UNL1       -0.2979
     21 H         143.8527  143.2611  165.1488 H       1  UNL1        0.1536
     22 C         141.7311  143.4681  164.7593 C.ar    1  UNL1        0.0494
     23 C         140.7361  143.0735  165.8102 C.ar    1  UNL1        0.0146
     24 C         139.3846  143.7233  165.8451 C.ar    1  UNL1        0.0013
     25 C         139.0280  144.7676  164.8290 C.ar    1  UNL1        0.0001
     26 C         140.0230  145.1621  163.7781 C.ar    1  UNL1        0.0013
     27 C         141.3746  144.5124  163.7432 C.ar    1  UNL1        0.0146
     28 C         141.0841  137.6936  157.0781 C.3     1  UNL1        0.0772
     29 S         139.9689  138.1638  157.9642 S.3     1  UNL1       -0.0766
@<TRIPOS>BOND
     1    28    29    1
     2    29     1    1
     3     1     2   ar
     4     2     3   ar
     5     3     7    1
     6     7     8   ar
     7     8     9   ar
     8     9    10   ar
     9    10    11    1
    10    10    12   ar
    11    12    13   ar
    12     3     4   ar
    13     4    14    1
    14    14    15   ar
    15    15    16   ar
    16    16    17   ar
    17    17    18   ar
    18    18    20    1
    19    20    22    1
    20    22    23   ar
    21    23    24   ar
    22    24    25   ar
    23    25    26   ar
    24    26    27   ar
    25    18    19   ar
    26     4     5   ar
    27     5     1   ar
    28    13     7   ar
    29    19    14   ar
    30    27    22   ar
    31    20    21    1
    32     5     6    1
@<TRIPOS>MOLECULE
*****
 29 32 0 0 0
SMALL
GASTEIGER

@<TRIPOS>ATOM
      1 C         140.5618  140.1819  169.0573 C.ar    1  UNL1        0.1680
      2 N         139.5724  139.7342  168.0226 N.ar    1  UNL1       -0.2213
      3 C         140.2699  139.7084  166.6948 C.ar    1  UNL1        0.0989
      4 C         141.6904  140.1402  166.9090 C.ar    1  UNL1        0.0760
      5 N         141.8708  140.4328  168.3691 N.ar    1  UNL1       -0.3324
      6 H         142.7023  140.7362  168.8000 H       1  UNL1        0.1679
      7 C         139.6549  139.3192  165.3832 C.ar    1  UNL1        0.0193
      8 C         139.9265  137.9642  164.8002 C.ar    1  UNL1        0.0038
      9 C         139.3115  137.5750  163.4886 C.ar    1  UNL1        0.0297
     10 C         138.4248  138.5409  162.7601 C.ar    1  UNL1        0.1401
     11 F         137.8097  138.1517  161.4484 F       1  UNL1       -0.2042
     12 C         138.1531  139.8960  163.3431 C.ar    1  UNL1        0.0297
     13 C         138.7681  140.2851  164.6547 C.ar    1  UNL1        0.0038
     14 C         142.7452  140.2585  165.8492 C.ar    1  UNL1        0.0214
     15 C         143.5613  139.0596  165.4661 C.ar    1  UNL1        0.0222
     16 C         144.6162  139.1779  164.4063 C.ar    1  UNL1        0.1004
     17 N         144.8551  140.4951  163.7295 N.ar    1  UNL1       -0.2291
     18 C         144.0390  141.6940  164.1126 C.ar    1  UNL1        0.1322
     19 C         142.9841  141.5756  165.1725 C.ar    1  UNL1        0.0359
     20 N         144.2778  143.0112  163.4359 N.pl3   1  UNL1       -0.2979
     21 H         145.1897  143.3781  163.3808 H       1  UNL1        0.1536
     22 C         143.1273  143.7694  162.8433 C.ar    1  UNL1        0.0494
     23 C         142.3922  144.7833  163.6691 C.ar    1  UNL1        0.0146
     24 C         141.2417  145.5415  163.0764 C.ar    1  UNL1        0.0013
     25 C         140.8260  145.2859  161.6579 C.ar    1  UNL1        0.0001
     26 C         141.5611  144.2721  160.8322 C.ar    1  UNL1        0.0013
     27 C         142.7117  143.5138  161.4248 C.ar    1  UNL1        0.0146
     28 C         141.0279  141.3926  171.3083 C.3     1  UNL1        0.0772
     29 S         140.2899  140.3492  170.5229 S.3     1  UNL1       -0.0766
@<TRIPOS>BOND
     1    28    29    1
     2    29     1    1
     3     1     2   ar
     4     2     3   ar
     5     3     7    1
     6     7     8   ar
     7     8     9   ar
     8     9    10   ar
     9    10    11    1
    10    10    12   ar
    11    12    13   ar
    12     3     4   ar
    13     4    14    1
    14    14    15   ar
    15    15    16   ar
    16    16    17   ar
    17    17    18   ar
    18    18    20    1
    19    20    22    1
    20    22    23   ar
    21    23    24   ar
    22    24    25   ar
    23    25    26   ar
    24    26    27   ar
    25    18    19   ar
    26     4     5   ar
    27     5     1   ar
    28    13     7   ar
    29    19    14   ar
    30    27    22   ar
    31    20    21    1
    32     5     6    1
@<TRIPOS>MOLECULE
*****
 29 32 0 0 0
SMALL
GASTEIGER

@<TRIPOS>ATOM
      1 C         142.5974  138.8367  159.0459 C.ar    1  UNL1        0.1680
      2 N         143.4130  139.8634  159.7744 N.ar    1  UNL1       -0.2213
      3 C         142.9259  139.9218  161.1919 C.ar    1  UNL1        0.0989
      4 C         141.8093  138.9312  161.3396 C.ar    1  UNL1        0.0760
      5 N         141.6062  138.2605  160.0133 N.ar    1  UNL1       -0.3324
      6 H         140.9395  137.5644  159.8129 H       1  UNL1        0.1679
      7 C         143.4615  140.8142  162.2721 C.ar    1  UNL1        0.0193
      8 C         142.6881  142.0280  162.6944 C.ar    1  UNL1        0.0038
      9 C         143.2237  142.9203  163.7745 C.ar    1  UNL1        0.0297
     10 C         144.5328  142.5988  164.4325 C.ar    1  UNL1        0.1401
     11 F         145.0684  143.4912  165.5127 F       1  UNL1       -0.2042
     12 C         145.3062  141.3850  164.0103 C.ar    1  UNL1        0.0297
     13 C         144.7706  140.4927  162.9301 C.ar    1  UNL1        0.0038
     14 C         141.0322  138.6589  162.5933 C.ar    1  UNL1        0.0214
     15 C         141.3328  137.4384  163.4119 C.ar    1  UNL1        0.0222
     16 C         140.5557  137.1662  164.6657 C.ar    1  UNL1        0.1004
     17 N         139.4780  138.1144  165.1010 N.ar    1  UNL1       -0.2291
     18 C         139.1774  139.3349  164.2824 C.ar    1  UNL1        0.1322
     19 C         139.9546  139.6071  163.0286 C.ar    1  UNL1        0.0359
     20 N         138.0998  140.2832  164.7176 N.pl3   1  UNL1       -0.2979
     21 H         137.2005  139.9428  164.9289 H       1  UNL1        0.1536
     22 C         138.3923  141.7500  164.8310 C.ar    1  UNL1        0.0494
     23 C         137.5445  142.7430  164.0925 C.ar    1  UNL1        0.0146
     24 C         137.8371  144.2099  164.2058 C.ar    1  UNL1        0.0013
     25 C         138.9773  144.6837  165.0576 C.ar    1  UNL1        0.0001
     26 C         139.8250  143.6906  165.7959 C.ar    1  UNL1        0.0013
     27 C         139.5326  142.2237  165.6827 C.ar    1  UNL1        0.0146
     28 C         141.8961  137.3613  157.0257 C.3     1  UNL1        0.0772
     29 S         142.7467  138.4534  157.6034 S.3     1  UNL1       -0.0766
@<TRIPOS>BOND
     1    28    29    1
     2    29     1    1
     3     1     2   ar
     4     2     3   ar
     5     3     7    1
     6     7     8   ar
     7     8     9   ar
     8     9    10   ar
     9    10    11    1
    10    10    12   ar
    11    12    13   ar
    12     3     4   ar
    13     4    14    1
    14    14    15   ar
    15    15    16   ar
    16    16    17   ar
    17    17    18   ar
    18    18    20    1
    19    20    22    1
    20    22    23   ar
    21    23    24   ar
    22    24    25   ar
    23    25    26   ar
    24    26    27   ar
    25    18    19   ar
    26     4     5   ar
    27     5     1   ar
    28    13     7   ar
    29    19    14   ar
    30    27    22   ar
    31    20    21    1
    32     5     6    1
@<TRIPOS>MOLECULE
*****
 29 32 0 0 0
SMALL
GASTEIGER

@<TRIPOS>ATOM
      1 C         140.1066  140.8638  169.1277 C.ar    1  UNL1        0.1680
      2 N         140.4456  142.1189  168.3796 N.ar    1  UNL1       -0.2213
      3 C         140.1651  141.8819  166.9253 C.ar    1  UNL1        0.0989
      4 C         139.6527  140.4802  166.7745 C.ar    1  UNL1        0.0760
      5 N         139.6165  139.8510  168.1357 N.ar    1  UNL1       -0.3324
      6 H         139.3227  138.9342  168.3417 H       1  UNL1        0.1679
      7 C         140.3624  142.8726  165.8164 C.ar    1  UNL1        0.0193
      8 C         139.3025  143.8932  165.5251 C.ar    1  UNL1        0.0038
      9 C         139.4999  144.8839  164.4162 C.ar    1  UNL1        0.0297
     10 C         140.7571  144.8539  163.5987 C.ar    1  UNL1        0.1401
     11 F         140.9544  145.8447  162.4898 F       1  UNL1       -0.2042
     12 C         141.8170  143.8333  163.8900 C.ar    1  UNL1        0.0297
     13 C         141.6197  142.8427  164.9988 C.ar    1  UNL1        0.0038
     14 C         139.2476  139.8231  165.4884 C.ar    1  UNL1        0.0214
     15 C         139.5901  138.3838  165.2412 C.ar    1  UNL1        0.0222
     16 C         139.1850  137.7267  163.9551 C.ar    1  UNL1        0.1004
     17 N         138.4374  138.5088  162.9162 N.ar    1  UNL1       -0.2291
     18 C         138.0948  139.9481  163.1634 C.ar    1  UNL1        0.1322
     19 C         138.4999  140.6052  164.4495 C.ar    1  UNL1        0.0359
     20 N         137.3472  140.7302  162.1246 N.pl3   1  UNL1       -0.2979
     21 H         136.3632  140.7566  162.1418 H       1  UNL1        0.1536
     22 C         138.0987  141.4722  161.0594 C.ar    1  UNL1        0.0494
     23 C         138.7659  142.7763  161.3825 C.ar    1  UNL1        0.0146
     24 C         139.5175  143.5183  160.3173 C.ar    1  UNL1        0.0013
     25 C         139.6019  142.9563  158.9291 C.ar    1  UNL1        0.0001
     26 C         138.9347  141.6523  158.6061 C.ar    1  UNL1        0.0013
     27 C         138.1831  140.9102  159.6712 C.ar    1  UNL1        0.0146
     28 C         141.4981  141.0535  171.3135 C.3     1  UNL1        0.0772
     29 S         140.2350  140.6576  170.6079 S.3     1  UNL1       -0.0766
@<TRIPOS>BOND
     1    28    29    1
     2    29     1    1
     3     1     2   ar
     4     2     3   ar
     5     3     7    1
     6     7     8   ar
     7     8     9   ar
     8     9    10   ar
     9    10    11    1
    10    10    12   ar
    11    12    13   ar
    12     3     4   ar
    13     4    14    1
    14    14    15   ar
    15    15    16   ar
    16    16    17   ar
    17    17    18   ar
    18    18    20    1
    19    20    22    1
    20    22    23   ar
    21    23    24   ar
    22    24    25   ar
    23    25    26   ar
    24    26    27   ar
    25    18    19   ar
    26     4     5   ar
    27     5     1   ar
    28    13     7   ar
    29    19    14   ar
    30    27    22   ar
    31    20    21    1
    32     5     6    1
@<TRIPOS>MOLECULE
*****
 29 32 0 0 0
SMALL
GASTEIGER

@<TRIPOS>ATOM
      1 C         138.5542  141.8099  158.8066 C.ar    1  UNL1        0.1680
      2 N         138.4474  142.8890  159.8430 N.ar    1  UNL1       -0.2213
      3 C         138.8053  142.2925  161.1719 C.ar    1  UNL1        0.0989
      4 C         139.1332  140.8447  160.9569 C.ar    1  UNL1        0.0760
      5 N         138.9781  140.5464  159.4951 N.ar    1  UNL1       -0.3324
      6 H         139.1281  139.6745  159.0633 H       1  UNL1        0.1679
      7 C         138.8307  143.0166  162.4854 C.ar    1  UNL1        0.0193
      8 C         140.1322  143.5092  163.0452 C.ar    1  UNL1        0.0038
      9 C         140.1575  144.2333  164.3585 C.ar    1  UNL1        0.0297
     10 C         138.8814  144.4649  165.1121 C.ar    1  UNL1        0.1401
     11 F         138.9068  145.1891  166.4255 F       1  UNL1       -0.2042
     12 C         137.5799  143.9724  164.5522 C.ar    1  UNL1        0.0297
     13 C         137.5545  143.2482  163.2389 C.ar    1  UNL1        0.0038
     14 C         139.5442  139.8668  162.0174 C.ar    1  UNL1        0.0214
     15 C         138.5542  138.8692  162.5420 C.ar    1  UNL1        0.0222
     16 C         138.9652  137.8913  163.6025 C.ar    1  UNL1        0.1004
     17 N         140.3660  137.9108  164.1386 N.ar    1  UNL1       -0.2291
     18 C         141.3559  138.9083  163.6141 C.ar    1  UNL1        0.1322
     19 C         140.9449  139.8862  162.5535 C.ar    1  UNL1        0.0359
     20 N         142.7567  138.9279  164.1501 N.pl3   1  UNL1       -0.2979
     21 H         143.2096  138.0831  164.3748 H       1  UNL1        0.1536
     22 C         143.4675  140.2345  164.3436 C.ar    1  UNL1        0.0494
     23 C         144.7928  140.4724  163.6823 C.ar    1  UNL1        0.0146
     24 C         145.5036  141.7791  163.8758 C.ar    1  UNL1        0.0013
     25 C         144.8892  142.8478  164.7305 C.ar    1  UNL1        0.0001
     26 C         143.5640  142.6098  165.3917 C.ar    1  UNL1        0.0013
     27 C         142.8531  141.3032  165.1983 C.ar    1  UNL1        0.0146
     28 C         137.7140  140.8224  156.5552 C.3     1  UNL1        0.0772
     29 S         138.2845  141.9668  157.3394 S.3     1  UNL1       -0.0766
@<TRIPOS>BOND
     1    28    29    1
     2    29     1    1
     3     1     2   ar
     4     2     3   ar
     5     3     7    1
     6     7     8   ar
     7     8     9   ar
     8     9    10   ar
     9    10    11    1
    10    10    12   ar
    11    12    13   ar
    12     3     4   ar
    13     4    14    1
    14    14    15   ar
    15    15    16   ar
    16    16    17   ar
    17    17    18   ar
    18    18    20    1
    19    20    22    1
    20    22    23   ar
    21    23    24   ar
    22    24    25   ar
    23    25    26   ar
    24    26    27   ar
    25    18    19   ar
    26     4     5   ar
    27     5     1   ar
    28    13     7   ar
    29    19    14   ar
    30    27    22   ar
    31    20    21    1
    32     5     6    1
@<TRIPOS>MOLECULE
*****
 29 32 0 0 0
SMALL
GASTEIGER

@<TRIPOS>ATOM
      1 C         141.9522  142.1833  168.9779 C.ar    1  UNL1        0.1680
      2 N         140.7870  142.6394  168.1507 N.ar    1  UNL1       -0.2213
      3 C         141.0640  142.2791  166.7212 C.ar    1  UNL1        0.0989
      4 C         142.4004  141.6003  166.6650 C.ar    1  UNL1        0.0760
      5 N         142.9494  141.5411  168.0596 N.ar    1  UNL1       -0.3324
      6 H         143.8126  141.1495  168.3256 H       1  UNL1        0.1679
      7 C         140.1627  142.5500  165.5531 C.ar    1  UNL1        0.0193
      8 C         140.1968  143.8869  164.8738 C.ar    1  UNL1        0.0038
      9 C         139.2956  144.1578  163.7058 C.ar    1  UNL1        0.0297
     10 C         138.3603  143.0917  163.2170 C.ar    1  UNL1        0.1401
     11 F         137.4591  143.3627  162.0489 F       1  UNL1       -0.2042
     12 C         138.3263  141.7548  163.8963 C.ar    1  UNL1        0.0297
     13 C         139.2275  141.4840  165.0644 C.ar    1  UNL1        0.0038
     14 C         143.0703  141.0732  165.4307 C.ar    1  UNL1        0.0214
     15 C         144.2892  141.7589  164.8880 C.ar    1  UNL1        0.0222
     16 C         144.9591  141.2318  163.6538 C.ar    1  UNL1        0.1004
     17 N         144.4103  140.0191  162.9622 N.ar    1  UNL1       -0.2291
     18 C         143.1915  139.3336  163.5048 C.ar    1  UNL1        0.1322
     19 C         142.5215  139.8606  164.7391 C.ar    1  UNL1        0.0359
     20 N         142.6426  138.1209  162.8133 N.pl3   1  UNL1       -0.2979
     21 H         143.2335  137.3601  162.6107 H       1  UNL1        0.1536
     22 C         141.1933  138.0676  162.4303 C.ar    1  UNL1        0.0494
     23 C         140.7767  138.3864  161.0250 C.ar    1  UNL1        0.0146
     24 C         139.3273  138.3331  160.6421 C.ar    1  UNL1        0.0013
     25 C         138.2946  137.9610  161.6644 C.ar    1  UNL1        0.0001
     26 C         138.7113  137.6421  163.0696 C.ar    1  UNL1        0.0013
     27 C         140.1606  137.6955  163.4527 C.ar    1  UNL1        0.0146
     28 C         141.1235  141.6679  171.3858 C.3     1  UNL1        0.0772
     29 S         142.0951  142.3416  170.4627 S.3     1  UNL1       -0.0766
@<TRIPOS>BOND
     1    28    29    1
     2    29     1    1
     3     1     2   ar
     4     2     3   ar
     5     3     7    1
     6     7     8   ar
     7     8     9   ar
     8     9    10   ar
     9    10    11    1
    10    10    12   ar
    11    12    13   ar
    12     3     4   ar
    13     4    14    1
    14    14    15   ar
    15    15    16   ar
    16    16    17   ar
    17    17    18   ar
    18    18    20    1
    19    20    22    1
    20    22    23   ar
    21    23    24   ar
    22    24    25   ar
    23    25    26   ar
    24    26    27   ar
    25    18    19   ar
    26     4     5   ar
    27     5     1   ar
    28    13     7   ar
    29    19    14   ar
    30    27    22   ar
    31    20    21    1
    32     5     6    1
@<TRIPOS>MOLECULE
*****
 29 32 0 0 0
SMALL
GASTEIGER

@<TRIPOS>ATOM
      1 C         144.0641  142.7005  159.3439 C.ar    1  UNL1        0.1680
      2 N         144.5587  142.4591  160.7393 N.ar    1  UNL1       -0.2213
      3 C         143.4629  142.8368  161.6914 C.ar    1  UNL1        0.0989
      4 C         142.2910  143.3117  160.8845 C.ar    1  UNL1        0.0760
      5 N         142.6626  143.2275  159.4337 N.ar    1  UNL1       -0.3324
      6 H         142.0875  143.4747  158.6738 H       1  UNL1        0.1679
      7 C         143.5276  142.7540  163.1878 C.ar    1  UNL1        0.0193
      8 C         142.7704  141.6815  163.9131 C.ar    1  UNL1        0.0038
      9 C         142.8351  141.5988  165.4093 C.ar    1  UNL1        0.0297
     10 C         143.6571  142.5887  166.1803 C.ar    1  UNL1        0.1401
     11 F         143.7219  142.5060  167.6767 F       1  UNL1       -0.2042
     12 C         144.4144  143.6613  165.4550 C.ar    1  UNL1        0.0297
     13 C         144.3496  143.7439  163.9587 C.ar    1  UNL1        0.0038
     14 C         140.9781  143.7873  161.4322 C.ar    1  UNL1        0.0214
     15 C         140.7066  145.2571  161.5590 C.ar    1  UNL1        0.0222
     16 C         139.3937  145.7327  162.1067 C.ar    1  UNL1        0.1004
     17 N         138.3522  144.7386  162.5275 N.ar    1  UNL1       -0.2291
     18 C         138.6237  143.2689  162.4007 C.ar    1  UNL1        0.1322
     19 C         139.9366  142.7933  161.8530 C.ar    1  UNL1        0.0359
     20 N         137.5822  142.2747  162.8215 N.pl3   1  UNL1       -0.2979
     21 H         136.6663  142.5758  163.0206 H       1  UNL1        0.1536
     22 C         137.9363  140.8219  162.9390 C.ar    1  UNL1        0.0494
     23 C         137.7293  139.9027  161.7718 C.ar    1  UNL1        0.0146
     24 C         138.0834  138.4499  161.8893 C.ar    1  UNL1        0.0013
     25 C         138.6445  137.9161  163.1739 C.ar    1  UNL1        0.0001
     26 C         138.8515  138.8353  164.3411 C.ar    1  UNL1        0.0013
     27 C         138.4974  140.2882  164.2237 C.ar    1  UNL1        0.0146
     28 C         144.1248  142.4379  156.7598 C.3     1  UNL1        0.0772
     29 S         144.8356  142.4577  158.0806 S.3     1  UNL1       -0.0766
@<TRIPOS>BOND
     1    28    29    1
     2    29     1    1
     3     1     2   ar
     4     2     3   ar
     5     3     7    1
     6     7     8   ar
     7     8     9   ar
     8     9    10   ar
     9    10    11    1
    10    10    12   ar
    11    12    13   ar
    12     3     4   ar
    13     4    14    1
    14    14    15   ar
    15    15    16   ar
    16    16    17   ar
    17    17    18   ar
    18    18    20    1
    19    20    22    1
    20    22    23   ar
    21    23    24   ar
    22    24    25   ar
    23    25    26   ar
    24    26    27   ar
    25    18    19   ar
    26     4     5   ar
    27     5     1   ar
    28    13     7   ar
    29    19    14   ar
    30    27    22   ar
    31    20    21    1
    32     5     6    1
