@<TRIPOS>MOLECULE
*****
 26 30 0 0 0
SMALL
GASTEIGER

@<TRIPOS>ATOM
      1 N         142.9456  141.8862  164.5594 N.pl3   1  UNL1       -0.3133
      2 C         142.7494  141.9136  166.0464 C.2     1  UNL1        0.2770
      3 N         141.6188  141.2764  166.7983 N.2     1  UNL1       -0.2204
      4 C         141.8200  141.5520  168.2590 C.3     1  UNL1        0.1537
      5 C         143.0751  142.3596  168.4097 C.3     1  UNL1        0.2350
      6 O         143.6494  142.5831  167.0423 O.2     1  UNL1       -0.4478
      7 C         140.5923  140.7460  167.9537 C.ar    1  UNL1        0.0356
      8 C         140.2611  140.3925  166.5341 C.ar    1  UNL1        0.0030
      9 C         139.0334  139.5865  166.2287 C.ar    1  UNL1        0.0304
     10 C         138.1370  139.1339  167.3430 C.ar    1  UNL1        0.1432
     11 F         136.9094  138.3279  167.0377 F       1  UNL1       -0.2041
     12 C         138.4683  139.4875  168.7627 C.ar    1  UNL1        0.0662
     13 C         139.6959  140.2935  169.0680 C.ar    1  UNL1        0.1386
     14 O         140.0272  140.6470  170.4876 O.3     1  UNL1       -0.4756
     15 C         141.2548  141.4530  170.7929 C.3     1  UNL1        0.2074
     16 C         142.1512  141.9055  169.6786 C.3     1  UNL1        0.0666
     17 C         143.3776  142.6321  169.2116 C.3     1  UNL1        0.0061
     18 C         143.0513  142.5749  170.6745 C.3     1  UNL1        0.0061
     19 H         142.2966  141.4182  163.9858 H       1  UNL1        0.1466
     20 H         143.7234  142.3363  164.1572 H       1  UNL1        0.1466
     21 C         138.7022  139.2330  164.8091 C.ar    1  UNL1        0.0405
     22 C         139.0024  137.8585  164.2889 C.ar    1  UNL1        0.1022
     23 N         138.6711  137.5050  162.8693 N.ar    1  UNL1       -0.2224
     24 C         138.0397  138.5261  161.9698 C.ar    1  UNL1        0.1989
     25 N         137.7396  139.9005  162.4901 N.ar    1  UNL1       -0.2224
     26 C         138.0708  140.2540  163.9098 C.ar    1  UNL1        0.1022
@<TRIPOS>BOND
     1     1     2    1
     2     2     3    2
     3     3     4    1
     4     4     5    1
     5     5     6    1
     6     4     7    1
     7     7     8   ar
     8     8     9   ar
     9     9    21    1
    10    21    22   ar
    11    22    23   ar
    12    23    24   ar
    13    24    25   ar
    14    25    26   ar
    15     9    10   ar
    16    10    11    1
    17    10    12   ar
    18    12    13   ar
    19    13    14    1
    20    14    15    1
    21    15    16    1
    22    16    17    1
    23    17    18    1
    24     6     2    1
    25    13     7   ar
    26    18    16    1
    27    16     4    1
    28    26    21   ar
    29     1    19    1
    30     1    20    1
@<TRIPOS>MOLECULE
*****
 26 30 0 0 0
SMALL
GASTEIGER

@<TRIPOS>ATOM
      1 N         137.1896  142.4785  164.3201 N.pl3   1  UNL1       -0.3133
      2 C         138.4473  142.9292  163.6382 C.2     1  UNL1        0.2770
      3 N         139.8263  142.9078  164.2280 N.2     1  UNL1       -0.2204
      4 C         140.7781  143.4457  163.2010 C.3     1  UNL1        0.1537
      5 C         139.9873  143.7996  161.9765 C.3     1  UNL1        0.2350
      6 O         138.5469  143.4803  162.2466 O.2     1  UNL1       -0.4478
      7 C         141.4330  143.0467  164.4902 C.ar    1  UNL1        0.0356
      8 C         140.6057  142.4911  165.6112 C.ar    1  UNL1        0.0030
      9 C         141.2606  142.0921  166.9004 C.ar    1  UNL1        0.0304
     10 C         142.7430  142.2487  167.0684 C.ar    1  UNL1        0.1432
     11 F         143.3979  141.8497  168.3575 F       1  UNL1       -0.2041
     12 C         143.5703  142.8043  165.9473 C.ar    1  UNL1        0.0662
     13 C         142.9153  143.2033  164.6582 C.ar    1  UNL1        0.1386
     14 O         143.7427  143.7589  163.5371 O.3     1  UNL1       -0.4756
     15 C         143.0877  144.1579  162.2480 C.3     1  UNL1        0.2074
     16 C         141.6054  144.0013  162.0800 C.3     1  UNL1        0.0666
     17 C         140.3715  144.1413  161.2387 C.3     1  UNL1        0.0061
     18 C         141.7050  144.5525  160.6884 C.3     1  UNL1        0.0061
     19 H         137.2263  142.1295  165.2399 H       1  UNL1        0.1466
     20 H         136.3274  142.5317  163.8479 H       1  UNL1        0.1466
     21 C         140.4333  141.5365  168.0214 C.ar    1  UNL1        0.0405
     22 C         139.7846  140.1914  167.8796 C.ar    1  UNL1        0.1022
     23 N         138.9573  139.6358  169.0006 N.ar    1  UNL1       -0.2224
     24 C         138.7786  140.4253  170.2635 C.ar    1  UNL1        0.1989
     25 N         139.4272  141.7703  170.4054 N.ar    1  UNL1       -0.2224
     26 C         140.2546  142.3259  169.2842 C.ar    1  UNL1        0.1022
@<TRIPOS>BOND
     1     1     2    1
     2     2     3    2
     3     3     4    1
     4     4     5    1
     5     5     6    1
     6     4     7    1
     7     7     8   ar
     8     8     9   ar
     9     9    21    1
    10    21    22   ar
    11    22    23   ar
    12    23    24   ar
    13    24    25   ar
    14    25    26   ar
    15     9    10   ar
    16    10    11    1
    17    10    12   ar
    18    12    13   ar
    19    13    14    1
    20    14    15    1
    21    15    16    1
    22    16    17    1
    23    17    18    1
    24     6     2    1
    25    13     7   ar
    26    18    16    1
    27    16     4    1
    28    26    21   ar
    29     1    19    1
    30     1    20    1
@<TRIPOS>MOLECULE
*****
 26 30 0 0 0
SMALL
GASTEIGER

@<TRIPOS>ATOM
      1 N         138.8832  143.4222  165.3318 N.pl3   1  UNL1       -0.3133
      2 C         138.7617  142.2893  164.3561 C.2     1  UNL1        0.2770
      3 N         139.5787  141.0314  164.3595 N.2     1  UNL1       -0.2204
      4 C         139.1237  140.1802  163.2112 C.3     1  UNL1        0.1537
      5 C         138.0255  140.9121  162.4983 C.3     1  UNL1        0.2350
      6 O         137.8017  142.2155  163.2058 O.2     1  UNL1       -0.4478
      7 C         140.2287  139.5708  164.0222 C.ar    1  UNL1        0.0356
      8 C         140.7864  140.3080  165.2035 C.ar    1  UNL1        0.0030
      9 C         141.8913  139.6985  166.0146 C.ar    1  UNL1        0.0304
     10 C         142.4385  138.3519  165.6443 C.ar    1  UNL1        0.1432
     11 F         143.5434  137.7425  166.4553 F       1  UNL1       -0.2041
     12 C         141.8808  137.6147  164.4629 C.ar    1  UNL1        0.0662
     13 C         140.7759  138.2241  163.6519 C.ar    1  UNL1        0.1386
     14 O         140.2182  137.4869  162.4706 O.3     1  UNL1       -0.4756
     15 C         139.1133  138.0964  161.6596 C.3     1  UNL1        0.2074
     16 C         138.5661  139.4430  162.0299 C.3     1  UNL1        0.0666
     17 C         137.6122  140.5723  161.7754 C.3     1  UNL1        0.0061
     18 C         137.6061  139.3692  160.8796 C.3     1  UNL1        0.0061
     19 H         139.5473  143.3780  166.0572 H       1  UNL1        0.1466
     20 H         138.2988  144.2099  165.2468 H       1  UNL1        0.1466
     21 C         142.4490  140.4357  167.1958 C.ar    1  UNL1        0.0405
     22 C         142.9120  141.8544  167.0443 C.ar    1  UNL1        0.1022
     23 N         143.4697  142.5916  168.2255 N.ar    1  UNL1       -0.2224
     24 C         143.5644  141.9102  169.5585 C.ar    1  UNL1        0.1989
     25 N         143.1014  140.4915  169.7101 N.ar    1  UNL1       -0.2224
     26 C         142.5437  139.7543  168.5287 C.ar    1  UNL1        0.1022
@<TRIPOS>BOND
     1     1     2    1
     2     2     3    2
     3     3     4    1
     4     4     5    1
     5     5     6    1
     6     4     7    1
     7     7     8   ar
     8     8     9   ar
     9     9    21    1
    10    21    22   ar
    11    22    23   ar
    12    23    24   ar
    13    24    25   ar
    14    25    26   ar
    15     9    10   ar
    16    10    11    1
    17    10    12   ar
    18    12    13   ar
    19    13    14    1
    20    14    15    1
    21    15    16    1
    22    16    17    1
    23    17    18    1
    24     6     2    1
    25    13     7   ar
    26    18    16    1
    27    16     4    1
    28    26    21   ar
    29     1    19    1
    30     1    20    1
@<TRIPOS>MOLECULE
*****
 26 30 0 0 0
SMALL
GASTEIGER

@<TRIPOS>ATOM
      1 N         137.2538  142.1465  164.4525 N.pl3   1  UNL1       -0.3133
      2 C         138.0912  141.1616  163.6917 C.2     1  UNL1        0.2770
      3 N         139.2946  140.4364  164.2169 N.2     1  UNL1       -0.2204
      4 C         139.8194  139.5556  163.1220 C.3     1  UNL1        0.1537
      5 C         138.9402  139.7364  161.9201 C.3     1  UNL1        0.2350
      6 O         137.8722  140.7290  162.2722 O.2     1  UNL1       -0.4478
      7 C         140.6061  139.4787  164.3968 C.ar    1  UNL1        0.0356
      8 C         140.1987  140.3049  165.5806 C.ar    1  UNL1        0.0030
      9 C         140.9855  140.2280  166.8554 C.ar    1  UNL1        0.0304
     10 C         142.1797  139.3249  166.9464 C.ar    1  UNL1        0.1432
     11 F         142.9664  139.2479  168.2212 F       1  UNL1       -0.2041
     12 C         142.5871  138.4987  165.7626 C.ar    1  UNL1        0.0662
     13 C         141.8004  138.5756  164.4878 C.ar    1  UNL1        0.1386
     14 O         142.2078  137.7494  163.3039 O.3     1  UNL1       -0.4756
     15 C         141.4210  137.8263  162.0292 C.3     1  UNL1        0.2074
     16 C         140.2268  138.7294  161.9382 C.3     1  UNL1        0.0666
     17 C         139.0831  139.2952  161.1497 C.3     1  UNL1        0.0061
     18 C         140.0078  138.2968  160.5187 C.3     1  UNL1        0.0061
     19 H         137.4786  142.3669  165.3853 H       1  UNL1        0.1466
     20 H         136.4793  142.5725  164.0190 H       1  UNL1        0.1466
     21 C         140.5780  141.0541  168.0392 C.ar    1  UNL1        0.0405
     22 C         140.9340  142.5102  168.0959 C.ar    1  UNL1        0.1022
     23 N         140.5266  143.3363  169.2797 N.ar    1  UNL1       -0.2224
     24 C         139.7631  142.7065  170.4068 C.ar    1  UNL1        0.1989
     25 N         139.4071  141.2505  170.3501 N.ar    1  UNL1       -0.2224
     26 C         139.8146  140.4243  169.1663 C.ar    1  UNL1        0.1022
@<TRIPOS>BOND
     1     1     2    1
     2     2     3    2
     3     3     4    1
     4     4     5    1
     5     5     6    1
     6     4     7    1
     7     7     8   ar
     8     8     9   ar
     9     9    21    1
    10    21    22   ar
    11    22    23   ar
    12    23    24   ar
    13    24    25   ar
    14    25    26   ar
    15     9    10   ar
    16    10    11    1
    17    10    12   ar
    18    12    13   ar
    19    13    14    1
    20    14    15    1
    21    15    16    1
    22    16    17    1
    23    17    18    1
    24     6     2    1
    25    13     7   ar
    26    18    16    1
    27    16     4    1
    28    26    21   ar
    29     1    19    1
    30     1    20    1
@<TRIPOS>MOLECULE
*****
 26 30 0 0 0
SMALL
GASTEIGER

@<TRIPOS>ATOM
      1 N         141.8741  145.4719  164.1756 N.pl3   1  UNL1       -0.3133
      2 C         140.9493  144.5226  163.4728 C.2     1  UNL1        0.2770
      3 N         140.3282  143.2939  164.0681 N.2     1  UNL1       -0.2204
      4 C         139.4785  142.6472  163.0146 C.3     1  UNL1        0.1537
      5 C         139.5744  143.4764  161.7683 C.3     1  UNL1        0.2350
      6 O         140.4835  144.6354  162.0515 O.2     1  UNL1       -0.4478
      7 C         139.4797  141.9219  164.3276 C.ar    1  UNL1        0.0356
      8 C         140.2854  142.4518  165.4765 C.ar    1  UNL1        0.0030
      9 C         140.2866  141.7264  166.7895 C.ar    1  UNL1        0.0304
     10 C         139.4821  140.4711  166.9535 C.ar    1  UNL1        0.1432
     11 F         139.4833  139.7457  168.2664 F       1  UNL1       -0.2041
     12 C         138.6764  139.9411  165.8045 C.ar    1  UNL1        0.0662
     13 C         138.6752  140.6665  164.4916 C.ar    1  UNL1        0.1386
     14 O         137.8695  140.1366  163.3427 O.3     1  UNL1       -0.4756
     15 C         137.8683  140.8619  162.0298 C.3     1  UNL1        0.2074
     16 C         138.6728  142.1173  161.8657 C.3     1  UNL1        0.0666
     17 C         139.1365  143.2608  161.0130 C.3     1  UNL1        0.0061
     18 C         138.2069  142.2301  160.4444 C.3     1  UNL1        0.0061
     19 H         142.1230  145.3121  165.1146 H       1  UNL1        0.1466
     20 H         142.2320  146.2547  163.6978 H       1  UNL1        0.1466
     21 C         141.0923  142.2564  167.9383 C.ar    1  UNL1        0.0405
     22 C         140.4128  142.9937  169.0540 C.ar    1  UNL1        0.1022
     23 N         141.2185  143.5237  170.2028 N.ar    1  UNL1       -0.2224
     24 C         142.7037  143.3164  170.2361 C.ar    1  UNL1        0.1989
     25 N         143.3832  142.5790  169.1205 N.ar    1  UNL1       -0.2224
     26 C         142.5775  142.0490  167.9716 C.ar    1  UNL1        0.1022
@<TRIPOS>BOND
     1     1     2    1
     2     2     3    2
     3     3     4    1
     4     4     5    1
     5     5     6    1
     6     4     7    1
     7     7     8   ar
     8     8     9   ar
     9     9    21    1
    10    21    22   ar
    11    22    23   ar
    12    23    24   ar
    13    24    25   ar
    14    25    26   ar
    15     9    10   ar
    16    10    11    1
    17    10    12   ar
    18    12    13   ar
    19    13    14    1
    20    14    15    1
    21    15    16    1
    22    16    17    1
    23    17    18    1
    24     6     2    1
    25    13     7   ar
    26    18    16    1
    27    16     4    1
    28    26    21   ar
    29     1    19    1
    30     1    20    1
@<TRIPOS>MOLECULE
*****
 26 30 0 0 0
SMALL
GASTEIGER

@<TRIPOS>ATOM
      1 N         143.9171  142.2269  165.4791 N.pl3   1  UNL1       -0.3133
      2 C         143.0091  142.0392  166.6583 C.2     1  UNL1        0.2770
      3 N         141.7940  141.1611  166.7044 N.2     1  UNL1       -0.2204
      4 C         141.1908  141.2759  168.0730 C.3     1  UNL1        0.1537
      5 C         142.0332  142.2251  168.8727 C.3     1  UNL1        0.2350
      6 O         143.1570  142.6968  167.9984 O.2     1  UNL1       -0.4478
      7 C         140.4479  140.3516  167.1544 C.ar    1  UNL1        0.0356
      8 C         140.9347  140.1369  165.7520 C.ar    1  UNL1        0.0030
      9 C         140.1918  139.2126  164.8334 C.ar    1  UNL1        0.0304
     10 C         138.9621  138.5029  165.3173 C.ar    1  UNL1        0.1432
     11 F         138.2192  137.5785  164.3988 F       1  UNL1       -0.2041
     12 C         138.4753  138.7175  166.7199 C.ar    1  UNL1        0.0662
     13 C         139.2182  139.6419  167.6384 C.ar    1  UNL1        0.1386
     14 O         138.7314  139.8566  169.0409 O.3     1  UNL1       -0.4756
     15 C         139.4743  140.7809  169.9594 C.3     1  UNL1        0.2074
     16 C         140.7040  141.4906  169.4755 C.3     1  UNL1        0.0666
     17 C         141.8428  142.4340  169.7264 C.3     1  UNL1        0.0061
     18 C         140.8518  142.1482  170.8155 C.3     1  UNL1        0.0061
     19 H         143.7362  141.7489  164.6376 H       1  UNL1        0.1466
     20 H         144.6939  142.8279  165.5467 H       1  UNL1        0.1466
     21 C         140.6786  138.9979  163.4310 C.ar    1  UNL1        0.0405
     22 C         141.3032  137.6896  163.0458 C.ar    1  UNL1        0.1022
     23 N         141.7900  137.4750  161.6434 N.ar    1  UNL1       -0.2224
     24 C         141.6523  138.5687  160.6260 C.ar    1  UNL1        0.1989
     25 N         141.0277  139.8770  161.0111 N.ar    1  UNL1       -0.2224
     26 C         140.5409  140.0916  162.4137 C.ar    1  UNL1        0.1022
@<TRIPOS>BOND
     1     1     2    1
     2     2     3    2
     3     3     4    1
     4     4     5    1
     5     5     6    1
     6     4     7    1
     7     7     8   ar
     8     8     9   ar
     9     9    21    1
    10    21    22   ar
    11    22    23   ar
    12    23    24   ar
    13    24    25   ar
    14    25    26   ar
    15     9    10   ar
    16    10    11    1
    17    10    12   ar
    18    12    13   ar
    19    13    14    1
    20    14    15    1
    21    15    16    1
    22    16    17    1
    23    17    18    1
    24     6     2    1
    25    13     7   ar
    26    18    16    1
    27    16     4    1
    28    26    21   ar
    29     1    19    1
    30     1    20    1
@<TRIPOS>MOLECULE
*****
 26 30 0 0 0
SMALL
GASTEIGER

@<TRIPOS>ATOM
      1 N         144.0949  142.2498  165.5673 N.pl3   1  UNL1       -0.3133
      2 C         143.6101  141.1581  164.6600 C.2     1  UNL1        0.2770
      3 N         142.3638  140.3447  164.8471 N.2     1  UNL1       -0.2204
      4 C         142.2700  139.3720  163.7090 C.3     1  UNL1        0.1537
      5 C         143.4583  139.5844  162.8186 C.3     1  UNL1        0.2350
      6 O         144.2865  140.6883  163.4063 O.2     1  UNL1       -0.4478
      7 C         141.1389  139.2750  164.6894 C.ar    1  UNL1        0.0356
      8 C         141.0984  140.1859  165.8804 C.ar    1  UNL1        0.0030
      9 C         139.9673  140.0888  166.8609 C.ar    1  UNL1        0.0304
     10 C         138.8766  139.0808  166.6502 C.ar    1  UNL1        0.1432
     11 F         137.7456  138.9836  167.6306 F       1  UNL1       -0.2041
     12 C         138.9171  138.1698  165.4591 C.ar    1  UNL1        0.0662
     13 C         140.0482  138.2669  164.4788 C.ar    1  UNL1        0.1386
     14 O         140.0887  137.3560  163.2877 O.3     1  UNL1       -0.4756
     15 C         141.2198  137.4531  162.3073 C.3     1  UNL1        0.2074
     16 C         142.3105  138.4611  162.5180 C.3     1  UNL1        0.0666
     17 C         143.5932  139.0992  162.0736 C.3     1  UNL1        0.0061
     18 C         142.9869  137.9913  161.2643 C.3     1  UNL1        0.0061
     19 H         143.5786  142.4874  166.3712 H       1  UNL1        0.1466
     20 H         144.9294  142.7288  165.3590 H       1  UNL1        0.1466
     21 C         139.9269  140.9997  168.0519 C.ar    1  UNL1        0.0405
     22 C         140.2498  142.4559  167.8937 C.ar    1  UNL1        0.1022
     23 N         140.2094  143.3668  169.0847 N.ar    1  UNL1       -0.2224
     24 C         139.8460  142.8215  170.4340 C.ar    1  UNL1        0.1989
     25 N         139.5230  141.3652  170.5923 N.ar    1  UNL1       -0.2224
     26 C         139.5635  140.4543  169.4011 C.ar    1  UNL1        0.1022
@<TRIPOS>BOND
     1     1     2    1
     2     2     3    2
     3     3     4    1
     4     4     5    1
     5     5     6    1
     6     4     7    1
     7     7     8   ar
     8     8     9   ar
     9     9    21    1
    10    21    22   ar
    11    22    23   ar
    12    23    24   ar
    13    24    25   ar
    14    25    26   ar
    15     9    10   ar
    16    10    11    1
    17    10    12   ar
    18    12    13   ar
    19    13    14    1
    20    14    15    1
    21    15    16    1
    22    16    17    1
    23    17    18    1
    24     6     2    1
    25    13     7   ar
    26    18    16    1
    27    16     4    1
    28    26    21   ar
    29     1    19    1
    30     1    20    1
@<TRIPOS>MOLECULE
*****
 26 30 0 0 0
SMALL
GASTEIGER

@<TRIPOS>ATOM
      1 N         144.2287  141.6453  164.4566 N.pl3   1  UNL1       -0.3133
      2 C         143.1230  140.7661  163.9519 C.2     1  UNL1        0.2770
      3 N         141.9217  140.3239  164.7337 N.2     1  UNL1       -0.2204
      4 C         141.0808  139.4594  163.8417 C.3     1  UNL1        0.1537
      5 C         141.7624  139.3675  162.5087 C.3     1  UNL1        0.2350
      6 O         143.0245  140.1750  162.5768 O.2     1  UNL1       -0.4478
      7 C         140.5185  139.6428  165.2202 C.ar    1  UNL1        0.0356
      8 C         141.2513  140.4832  166.2235 C.ar    1  UNL1        0.0030
      9 C         140.6890  140.6666  167.6020 C.ar    1  UNL1        0.0304
     10 C         139.3939  140.0094  167.9772 C.ar    1  UNL1        0.1432
     11 F         138.8316  140.1928  169.3556 F       1  UNL1       -0.2041
     12 C         138.6610  139.1689  166.9739 C.ar    1  UNL1        0.0662
     13 C         139.2233  138.9856  165.5954 C.ar    1  UNL1        0.1386
     14 O         138.4905  138.1451  164.5921 O.3     1  UNL1       -0.4756
     15 C         139.0528  137.9618  163.2137 C.3     1  UNL1        0.2074
     16 C         140.3480  138.6189  162.8385 C.3     1  UNL1        0.0666
     17 C         141.4203  138.8925  161.8260 C.3     1  UNL1        0.0061
     18 C         140.2495  138.0278  161.4634 C.3     1  UNL1        0.0061
     19 H         144.2041  141.9860  165.3799 H       1  UNL1        0.1466
     20 H         144.9790  141.8815  163.8645 H       1  UNL1        0.1466
     21 C         141.4219  141.5071  168.6052 C.ar    1  UNL1        0.0405
     22 C         140.7574  142.7119  169.2026 C.ar    1  UNL1        0.1022
     23 N         141.4903  143.5524  170.2058 N.ar    1  UNL1       -0.2224
     24 C         142.8876  143.1880  170.6117 C.ar    1  UNL1        0.1989
     25 N         143.5520  141.9831  170.0144 N.ar    1  UNL1       -0.2224
     26 C         142.8191  141.1426  169.0111 C.ar    1  UNL1        0.1022
@<TRIPOS>BOND
     1     1     2    1
     2     2     3    2
     3     3     4    1
     4     4     5    1
     5     5     6    1
     6     4     7    1
     7     7     8   ar
     8     8     9   ar
     9     9    21    1
    10    21    22   ar
    11    22    23   ar
    12    23    24   ar
    13    24    25   ar
    14    25    26   ar
    15     9    10   ar
    16    10    11    1
    17    10    12   ar
    18    12    13   ar
    19    13    14    1
    20    14    15    1
    21    15    16    1
    22    16    17    1
    23    17    18    1
    24     6     2    1
    25    13     7   ar
    26    18    16    1
    27    16     4    1
    28    26    21   ar
    29     1    19    1
    30     1    20    1
@<TRIPOS>MOLECULE
*****
 26 30 0 0 0
SMALL
GASTEIGER

@<TRIPOS>ATOM
      1 N         141.1051  136.5767  164.0557 N.pl3   1  UNL1       -0.3133
      2 C         140.4936  137.6482  163.2024 C.2     1  UNL1        0.2770
      3 N         140.1826  139.0501  163.6359 N.2     1  UNL1       -0.2204
      4 C         139.5824  139.7742  162.4673 C.3     1  UNL1        0.1537
      5 C         139.5226  138.8197  161.3116 C.3     1  UNL1        0.2350
      6 O         140.0857  137.5059  161.7660 O.2     1  UNL1       -0.4478
      7 C         139.7059  140.6114  163.7058 C.ar    1  UNL1        0.0356
      8 C         140.2889  140.0207  164.9553 C.ar    1  UNL1        0.0030
      9 C         140.4123  140.8579  166.1938 C.ar    1  UNL1        0.0304
     10 C         139.9527  142.2858  166.1828 C.ar    1  UNL1        0.1432
     11 F         140.0762  143.1230  167.4213 F       1  UNL1       -0.2041
     12 C         139.3697  142.8764  164.9333 C.ar    1  UNL1        0.0662
     13 C         139.2463  142.0392  163.6948 C.ar    1  UNL1        0.1386
     14 O         138.6633  142.6298  162.4452 O.3     1  UNL1       -0.4756
     15 C         138.5398  141.7926  161.2068 C.3     1  UNL1        0.2074
     16 C         138.9994  140.3648  161.2178 C.3     1  UNL1        0.0666
     17 C         139.1935  139.0571  160.5091 C.3     1  UNL1        0.0061
     18 C         138.5916  140.2225  159.7813 C.3     1  UNL1        0.0061
     19 H         141.3398  136.7676  164.9925 H       1  UNL1        0.1466
     20 H         141.2718  135.6826  163.6788 H       1  UNL1        0.1466
     21 C         140.9953  140.2673  167.4433 C.ar    1  UNL1        0.0405
     22 C         140.1464  140.1228  168.6715 C.ar    1  UNL1        0.1022
     23 N         140.7294  139.5321  169.9209 N.ar    1  UNL1       -0.2224
     24 C         142.1614  139.0860  169.9423 C.ar    1  UNL1        0.1989
     25 N         143.0104  139.2306  168.7141 N.ar    1  UNL1       -0.2224
     26 C         142.4273  139.8212  167.4646 C.ar    1  UNL1        0.1022
@<TRIPOS>BOND
     1     1     2    1
     2     2     3    2
     3     3     4    1
     4     4     5    1
     5     5     6    1
     6     4     7    1
     7     7     8   ar
     8     8     9   ar
     9     9    21    1
    10    21    22   ar
    11    22    23   ar
    12    23    24   ar
    13    24    25   ar
    14    25    26   ar
    15     9    10   ar
    16    10    11    1
    17    10    12   ar
    18    12    13   ar
    19    13    14    1
    20    14    15    1
    21    15    16    1
    22    16    17    1
    23    17    18    1
    24     6     2    1
    25    13     7   ar
    26    18    16    1
    27    16     4    1
    28    26    21   ar
    29     1    19    1
    30     1    20    1
