@<TRIPOS>MOLECULE
*****
 29 32 0 0 0
SMALL
GASTEIGER

@<TRIPOS>ATOM
      1 C         142.3986  138.5371  163.5443 C.ar    1  UNL1        0.2362
      2 N         142.9121  139.5607  164.5131 N.ar    1  UNL1       -0.2086
      3 C         142.0741  139.9675  165.6888 C.ar    1  UNL1        0.1318
      4 C         140.7225  139.3505  165.8957 C.ar    1  UNL1        0.0491
      5 C         139.8845  139.7573  167.0714 C.ar    1  UNL1        0.0041
      6 C         138.5330  139.1404  167.2784 C.ar    1  UNL1        0.0002
      7 C         138.0195  138.1168  166.3096 C.ar    1  UNL1        0.0015
      8 C         138.8575  137.7101  165.1339 C.ar    1  UNL1        0.0192
      9 C         140.2090  138.3269  164.9270 C.ar    1  UNL1        0.0856
     10 N         141.0471  137.9202  163.7513 N.ar    1  UNL1       -0.2232
     11 C         140.3980  140.7810  168.0402 C.ar    1  UNL1        0.0001
     12 C         141.2368  140.3539  169.2081 C.ar    1  UNL1        0.0000
     13 C         141.7503  141.3776  170.1769 C.ar    1  UNL1        0.0000
     14 C         141.4250  142.8283  169.9777 C.ar    1  UNL1        0.0000
     15 C         140.5863  143.2553  168.8097 C.ar    1  UNL1        0.0000
     16 C         140.0728  142.2316  167.8410 C.ar    1  UNL1        0.0000
     17 F         144.0746  137.7236  161.1929 F       1  UNL1       -0.1632
     18 C         143.2366  138.1303  162.3686 C.3     1  UNL1        0.4523
     19 F         144.4338  138.7793  162.9975 F       1  UNL1       -0.1632
     20 F         142.0394  137.4813  161.7398 F       1  UNL1       -0.1632
     21 N         142.5875  140.9911  166.6575 N.pl3   1  UNL1       -0.3131
     22 H         142.3063  140.9610  167.6005 H       1  UNL1        0.1485
     23 C         143.5296  142.0605  166.1896 C.3     1  UNL1        0.1348
     24 C         143.0412  143.1404  165.2702 C.ar    1  UNL1        0.0788
     25 C         144.0239  144.0417  164.5833 C.ar    1  UNL1        0.0165
     26 C         143.5356  145.1217  163.6639 C.ar    1  UNL1        0.0029
     27 C         142.0645  145.3004  163.4316 C.ar    1  UNL1        0.0207
     28 C         141.0818  144.3990  164.1186 C.ar    1  UNL1        0.0985
     29 N         141.5702  143.3191  165.0379 N.ar    1  UNL1       -0.2464
@<TRIPOS>BOND
     1    17    18    1
     2    18    19    1
     3    18    20    1
     4    18     1    1
     5     1     2   ar
     6     2     3   ar
     7     3    21    1
     8    21    23    1
     9    23    24    1
    10    24    25   ar
    11    25    26   ar
    12    26    27   ar
    13    27    28   ar
    14    28    29   ar
    15     3     4   ar
    16     4     5   ar
    17     5    11    1
    18    11    12   ar
    19    12    13   ar
    20    13    14   ar
    21    14    15   ar
    22    15    16   ar
    23     5     6   ar
    24     6     7   ar
    25     7     8   ar
    26     8     9   ar
    27     9    10   ar
    28    10     1   ar
    29    29    24   ar
    30     9     4   ar
    31    16    11   ar
    32    21    22    1
@<TRIPOS>MOLECULE
*****
 29 32 0 0 0
SMALL
GASTEIGER

@<TRIPOS>ATOM
      1 C         139.0914  138.6548  165.8261 C.ar    1  UNL1        0.2362
      2 N         139.4899  140.0813  166.0638 N.ar    1  UNL1       -0.2086
      3 C         140.6409  140.6745  165.3066 C.ar    1  UNL1        0.1318
      4 C         141.3933  139.8413  164.3118 C.ar    1  UNL1        0.0491
      5 C         142.5443  140.4345  163.5546 C.ar    1  UNL1        0.0041
      6 C         143.2968  139.6014  162.5598 C.ar    1  UNL1        0.0002
      7 C         142.8982  138.1750  162.3222 C.ar    1  UNL1        0.0015
      8 C         141.7472  137.5818  163.0793 C.ar    1  UNL1        0.0192
      9 C         140.9948  138.4149  164.0741 C.ar    1  UNL1        0.0856
     10 N         139.8438  137.8217  164.8313 N.ar    1  UNL1       -0.2232
     11 C         142.9429  141.8610  163.7923 C.ar    1  UNL1        0.0001
     12 C         143.9643  142.1897  164.8405 C.ar    1  UNL1        0.0000
     13 C         144.3628  143.6161  165.0782 C.ar    1  UNL1        0.0000
     14 C         143.7399  144.7139  164.2676 C.ar    1  UNL1        0.0000
     15 C         142.7185  144.3852  163.2194 C.ar    1  UNL1        0.0000
     16 C         142.3200  142.9588  162.9818 C.ar    1  UNL1        0.0000
     17 F         136.7894  137.4683  167.3404 F       1  UNL1       -0.1632
     18 C         137.9404  138.0616  166.5833 C.3     1  UNL1        0.4523
     19 F         138.1116  136.7733  165.8342 F       1  UNL1       -0.1632
     20 F         137.7692  139.3498  167.3323 F       1  UNL1       -0.1632
     21 N         141.0395  142.1009  165.5443 N.pl3   1  UNL1       -0.3131
     22 H         141.6198  142.5641  164.8978 H       1  UNL1        0.1485
     23 C         140.5538  142.8216  166.7669 C.3     1  UNL1        0.1348
     24 C         141.1402  142.5000  168.1095 C.ar    1  UNL1        0.0788
     25 C         142.6077  142.2180  168.2390 C.ar    1  UNL1        0.0165
     26 C         143.1941  141.8964  169.5817 C.ar    1  UNL1        0.0029
     27 C         142.3129  141.8567  170.7949 C.ar    1  UNL1        0.0207
     28 C         140.8453  142.1387  170.6654 C.ar    1  UNL1        0.0985
     29 N         140.2590  142.4604  169.3228 N.ar    1  UNL1       -0.2464
@<TRIPOS>BOND
     1    17    18    1
     2    18    19    1
     3    18    20    1
     4    18     1    1
     5     1     2   ar
     6     2     3   ar
     7     3    21    1
     8    21    23    1
     9    23    24    1
    10    24    25   ar
    11    25    26   ar
    12    26    27   ar
    13    27    28   ar
    14    28    29   ar
    15     3     4   ar
    16     4     5   ar
    17     5    11    1
    18    11    12   ar
    19    12    13   ar
    20    13    14   ar
    21    14    15   ar
    22    15    16   ar
    23     5     6   ar
    24     6     7   ar
    25     7     8   ar
    26     8     9   ar
    27     9    10   ar
    28    10     1   ar
    29    29    24   ar
    30     9     4   ar
    31    16    11   ar
    32    21    22    1
@<TRIPOS>MOLECULE
*****
 29 32 0 0 0
SMALL
GASTEIGER

@<TRIPOS>ATOM
      1 C         138.6354  138.9764  165.8844 C.ar    1  UNL1        0.2362
      2 N         140.1351  138.9502  165.8673 N.ar    1  UNL1       -0.2086
      3 C         140.8960  140.0301  165.1567 C.ar    1  UNL1        0.1318
      4 C         140.1571  141.1361  164.4632 C.ar    1  UNL1        0.0491
      5 C         140.9180  142.2160  163.7526 C.ar    1  UNL1        0.0041
      6 C         140.1792  143.3220  163.0591 C.ar    1  UNL1        0.0002
      7 C         138.6796  143.3481  163.0762 C.ar    1  UNL1        0.0015
      8 C         137.9187  142.2682  163.7868 C.ar    1  UNL1        0.0192
      9 C         138.6575  141.1623  164.4803 C.ar    1  UNL1        0.0856
     10 N         137.8966  140.0824  165.1909 N.ar    1  UNL1       -0.2232
     11 C         142.4177  142.1899  163.7355 C.ar    1  UNL1        0.0001
     12 C         143.1422  141.4058  162.6818 C.ar    1  UNL1        0.0000
     13 C         144.6419  141.3796  162.6647 C.ar    1  UNL1        0.0000
     14 C         145.4171  142.1376  163.7013 C.ar    1  UNL1        0.0000
     15 C         144.6925  142.9217  164.7551 C.ar    1  UNL1        0.0000
     16 C         143.1929  142.9479  164.7721 C.ar    1  UNL1        0.0000
     17 F         137.1136  136.8167  167.3056 F       1  UNL1       -0.1632
     18 C         137.8745  137.8965  166.5950 C.3     1  UNL1        0.4523
     19 F         138.3846  136.8881  165.6087 F       1  UNL1       -0.1632
     20 F         137.3643  138.9050  167.5812 F       1  UNL1       -0.1632
     21 N         142.3956  140.0040  165.1396 N.pl3   1  UNL1       -0.3131
     22 H         142.8848  140.3373  164.3529 H       1  UNL1        0.1485
     23 C         143.1500  139.4701  166.3211 C.3     1  UNL1        0.1348
     24 C         142.9291  140.0617  167.6816 C.ar    1  UNL1        0.0788
     25 C         142.8064  141.5480  167.8423 C.ar    1  UNL1        0.0165
     26 C         142.5855  142.1396  169.2029 C.ar    1  UNL1        0.0029
     27 C         142.4873  141.2449  170.4028 C.ar    1  UNL1        0.0207
     28 C         142.6101  139.7586  170.2422 C.ar    1  UNL1        0.0985
     29 N         142.8309  139.1670  168.8816 N.ar    1  UNL1       -0.2464
@<TRIPOS>BOND
     1    17    18    1
     2    18    19    1
     3    18    20    1
     4    18     1    1
     5     1     2   ar
     6     2     3   ar
     7     3    21    1
     8    21    23    1
     9    23    24    1
    10    24    25   ar
    11    25    26   ar
    12    26    27   ar
    13    27    28   ar
    14    28    29   ar
    15     3     4   ar
    16     4     5   ar
    17     5    11    1
    18    11    12   ar
    19    12    13   ar
    20    13    14   ar
    21    14    15   ar
    22    15    16   ar
    23     5     6   ar
    24     6     7   ar
    25     7     8   ar
    26     8     9   ar
    27     9    10   ar
    28    10     1   ar
    29    29    24   ar
    30     9     4   ar
    31    16    11   ar
    32    21    22    1
@<TRIPOS>MOLECULE
*****
 29 32 0 0 0
SMALL
GASTEIGER

@<TRIPOS>ATOM
      1 C         141.3589  138.4473  161.4624 C.ar    1  UNL1        0.2362
      2 N         141.2249  139.9376  161.5674 N.ar    1  UNL1       -0.2086
      3 C         140.4267  140.5420  162.6844 C.ar    1  UNL1        0.1318
      4 C         139.7625  139.6560  163.6964 C.ar    1  UNL1        0.0491
      5 C         138.9643  140.2603  164.8134 C.ar    1  UNL1        0.0041
      6 C         138.3002  139.3744  165.8253 C.ar    1  UNL1        0.0002
      7 C         138.4343  137.8841  165.7202 C.ar    1  UNL1        0.0015
      8 C         139.2325  137.2798  164.6033 C.ar    1  UNL1        0.0192
      9 C         139.8966  138.1657  163.5913 C.ar    1  UNL1        0.0856
     10 N         140.6948  137.5614  162.4744 N.ar    1  UNL1       -0.2232
     11 C         138.8303  141.7507  164.9184 C.ar    1  UNL1        0.0001
     12 C         137.7164  142.4558  164.2029 C.ar    1  UNL1        0.0000
     13 C         137.5823  143.9461  164.3079 C.ar    1  UNL1        0.0000
     14 C         138.5622  144.7313  165.1285 C.ar    1  UNL1        0.0000
     15 C         139.6762  144.0261  165.8440 C.ar    1  UNL1        0.0000
     16 C         139.8102  142.5358  165.7389 C.ar    1  UNL1        0.0000
     17 F         142.9553  137.2386  159.2285 F       1  UNL1       -0.1632
     18 C         142.1571  137.8429  160.3454 C.3     1  UNL1        0.4523
     19 F         141.0714  138.2027  159.3750 F       1  UNL1       -0.1632
     20 F         143.2428  137.4832  161.3159 F       1  UNL1       -0.1632
     21 N         140.2926  142.0322  162.7895 N.pl3   1  UNL1       -0.3131
     22 H         139.4522  142.4292  163.1143 H       1  UNL1        0.1485
     23 C         141.4389  142.9178  162.3997 C.3     1  UNL1        0.1348
     24 C         142.8113  142.6510  162.9432 C.ar    1  UNL1        0.0788
     25 C         143.1280  142.9764  164.3728 C.ar    1  UNL1        0.0165
     26 C         144.5004  142.7097  164.9164 C.ar    1  UNL1        0.0029
     27 C         145.5560  142.1174  164.0304 C.ar    1  UNL1        0.0207
     28 C         145.2392  141.7920  162.6008 C.ar    1  UNL1        0.0985
     29 N         143.8668  142.0588  162.0572 N.ar    1  UNL1       -0.2464
@<TRIPOS>BOND
     1    17    18    1
     2    18    19    1
     3    18    20    1
     4    18     1    1
     5     1     2   ar
     6     2     3   ar
     7     3    21    1
     8    21    23    1
     9    23    24    1
    10    24    25   ar
    11    25    26   ar
    12    26    27   ar
    13    27    28   ar
    14    28    29   ar
    15     3     4   ar
    16     4     5   ar
    17     5    11    1
    18    11    12   ar
    19    12    13   ar
    20    13    14   ar
    21    14    15   ar
    22    15    16   ar
    23     5     6   ar
    24     6     7   ar
    25     7     8   ar
    26     8     9   ar
    27     9    10   ar
    28    10     1   ar
    29    29    24   ar
    30     9     4   ar
    31    16    11   ar
    32    21    22    1
@<TRIPOS>MOLECULE
*****
 29 32 0 0 0
SMALL
GASTEIGER

@<TRIPOS>ATOM
      1 C         141.1076  144.8003  162.3333 C.ar    1  UNL1        0.2362
      2 N         140.6393  144.2487  163.6473 N.ar    1  UNL1       -0.2086
      3 C         141.5158  143.3095  164.4216 C.ar    1  UNL1        0.1318
      4 C         142.8607  142.9219  163.8819 C.ar    1  UNL1        0.0491
      5 C         143.7372  141.9826  164.6562 C.ar    1  UNL1        0.0041
      6 C         145.0820  141.5950  164.1165 C.ar    1  UNL1        0.0002
      7 C         145.5502  142.1466  162.8026 C.ar    1  UNL1        0.0015
      8 C         144.6737  143.0858  162.0283 C.ar    1  UNL1        0.0192
      9 C         143.3289  143.4734  162.5680 C.ar    1  UNL1        0.0856
     10 N         142.4524  144.4127  161.7937 N.ar    1  UNL1       -0.2232
     11 C         143.2689  141.4311  165.9702 C.ar    1  UNL1        0.0001
     12 C         142.7607  140.0223  166.0539 C.ar    1  UNL1        0.0000
     13 C         142.2924  139.4707  167.3679 C.ar    1  UNL1        0.0000
     14 C         142.3324  140.3280  168.5981 C.ar    1  UNL1        0.0000
     15 C         142.8406  141.7368  168.5144 C.ar    1  UNL1        0.0000
     16 C         143.3088  142.2883  167.2004 C.ar    1  UNL1        0.0000
     17 F         139.3545  146.6787  160.7847 F       1  UNL1       -0.1632
     18 C         140.2310  145.7395  161.5590 C.3     1  UNL1        0.4523
     19 F         139.3111  145.8532  162.7383 F       1  UNL1       -0.1632
     20 F         141.1510  145.6258  160.3797 F       1  UNL1       -0.1632
     21 N         141.0476  142.7579  165.7355 N.pl3   1  UNL1       -0.3131
     22 H         141.6502  142.7622  166.5140 H       1  UNL1        0.1485
     23 C         139.6611  142.1998  165.8634 C.3     1  UNL1        0.1348
     24 C         139.3851  140.7793  165.4687 C.ar    1  UNL1        0.0788
     25 C         138.7433  139.8403  166.4466 C.ar    1  UNL1        0.0165
     26 C         138.4672  138.4197  166.0519 C.ar    1  UNL1        0.0029
     27 C         138.8330  137.9381  164.6792 C.ar    1  UNL1        0.0207
     28 C         139.4748  138.8772  163.7012 C.ar    1  UNL1        0.0985
     29 N         139.7509  140.2977  164.0960 N.ar    1  UNL1       -0.2464
@<TRIPOS>BOND
     1    17    18    1
     2    18    19    1
     3    18    20    1
     4    18     1    1
     5     1     2   ar
     6     2     3   ar
     7     3    21    1
     8    21    23    1
     9    23    24    1
    10    24    25   ar
    11    25    26   ar
    12    26    27   ar
    13    27    28   ar
    14    28    29   ar
    15     3     4   ar
    16     4     5   ar
    17     5    11    1
    18    11    12   ar
    19    12    13   ar
    20    13    14   ar
    21    14    15   ar
    22    15    16   ar
    23     5     6   ar
    24     6     7   ar
    25     7     8   ar
    26     8     9   ar
    27     9    10   ar
    28    10     1   ar
    29    29    24   ar
    30     9     4   ar
    31    16    11   ar
    32    21    22    1
@<TRIPOS>MOLECULE
*****
 29 32 0 0 0
SMALL
GASTEIGER

@<TRIPOS>ATOM
      1 C         139.2966  139.5593  166.8168 C.ar    1  UNL1        0.2362
      2 N         139.8052  140.0030  165.4771 N.ar    1  UNL1       -0.2086
      3 C         141.0275  140.8679  165.3879 C.ar    1  UNL1        0.1318
      4 C         141.7412  141.2891  166.6383 C.ar    1  UNL1        0.0491
      5 C         142.9635  142.1539  166.5490 C.ar    1  UNL1        0.0041
      6 C         143.6771  142.5751  167.7993 C.ar    1  UNL1        0.0002
      7 C         143.1685  142.1314  169.1388 C.ar    1  UNL1        0.0015
      8 C         141.9462  141.2665  169.2281 C.ar    1  UNL1        0.0192
      9 C         141.2325  140.8453  167.9778 C.ar    1  UNL1        0.0856
     10 N         140.0102  139.9805  168.0670 N.ar    1  UNL1       -0.2232
     11 C         143.4721  142.5977  165.2094 C.ar    1  UNL1        0.0001
     12 C         143.0517  143.9241  164.6494 C.ar    1  UNL1        0.0000
     13 C         143.5603  144.3678  163.3097 C.ar    1  UNL1        0.0000
     14 C         144.4893  143.4850  162.5303 C.ar    1  UNL1        0.0000
     15 C         144.9097  142.1585  163.0904 C.ar    1  UNL1        0.0000
     16 C         144.4011  141.7149  164.4299 C.ar    1  UNL1        0.0000
     17 F         136.8520  137.8295  166.9952 F       1  UNL1       -0.1632
     18 C         138.0743  138.6944  166.9060 C.3     1  UNL1        0.4523
     19 F         137.8153  139.2035  168.2930 F       1  UNL1       -0.1632
     20 F         138.3333  138.1853  165.5190 F       1  UNL1       -0.1632
     21 N         141.5361  141.3116  164.0484 N.pl3   1  UNL1       -0.3131
     22 H         142.5027  141.4296  163.9033 H       1  UNL1        0.1485
     23 C         140.5720  141.5756  162.9299 C.3     1  UNL1        0.1348
     24 C         140.4017  142.9683  162.3995 C.ar    1  UNL1        0.0788
     25 C         139.6546  143.9907  163.2034 C.ar    1  UNL1        0.0165
     26 C         139.4842  145.3835  162.6731 C.ar    1  UNL1        0.0029
     27 C         140.0610  145.7537  161.3388 C.ar    1  UNL1        0.0207
     28 C         140.8082  144.7312  160.5349 C.ar    1  UNL1        0.0985
     29 N         140.9785  143.3385  161.0653 N.ar    1  UNL1       -0.2464
@<TRIPOS>BOND
     1    17    18    1
     2    18    19    1
     3    18    20    1
     4    18     1    1
     5     1     2   ar
     6     2     3   ar
     7     3    21    1
     8    21    23    1
     9    23    24    1
    10    24    25   ar
    11    25    26   ar
    12    26    27   ar
    13    27    28   ar
    14    28    29   ar
    15     3     4   ar
    16     4     5   ar
    17     5    11    1
    18    11    12   ar
    19    12    13   ar
    20    13    14   ar
    21    14    15   ar
    22    15    16   ar
    23     5     6   ar
    24     6     7   ar
    25     7     8   ar
    26     8     9   ar
    27     9    10   ar
    28    10     1   ar
    29    29    24   ar
    30     9     4   ar
    31    16    11   ar
    32    21    22    1
@<TRIPOS>MOLECULE
*****
 29 32 0 0 0
SMALL
GASTEIGER

@<TRIPOS>ATOM
      1 C         138.4322  139.6489  163.3463 C.ar    1  UNL1        0.2362
      2 N         139.4187  139.3024  164.4220 N.ar    1  UNL1       -0.2086
      3 C         139.9065  140.3642  165.3625 C.ar    1  UNL1        0.1318
      4 C         139.4079  141.7725  165.2273 C.ar    1  UNL1        0.0491
      5 C         139.8957  142.8344  166.1678 C.ar    1  UNL1        0.0041
      6 C         139.3971  144.2426  166.0327 C.ar    1  UNL1        0.0002
      7 C         138.4108  144.5890  164.9571 C.ar    1  UNL1        0.0015
      8 C         137.9229  143.5271  164.0166 C.ar    1  UNL1        0.0192
      9 C         138.4215  142.1189  164.1517 C.ar    1  UNL1        0.0856
     10 N         137.9337  141.0571  163.2112 N.ar    1  UNL1       -0.2232
     11 C         140.8822  142.4879  167.2435 C.ar    1  UNL1        0.0001
     12 C         142.3538  142.6003  166.9760 C.ar    1  UNL1        0.0000
     13 C         143.3402  142.2538  168.0516 C.ar    1  UNL1        0.0000
     14 C         142.8549  141.7950  169.3948 C.ar    1  UNL1        0.0000
     15 C         141.3832  141.6827  169.6623 C.ar    1  UNL1        0.0000
     16 C         140.3969  142.0292  168.5866 C.ar    1  UNL1        0.0000
     17 F         137.4566  137.5252  161.4653 F       1  UNL1       -0.1632
     18 C         137.9444  138.5870  162.4058 C.3     1  UNL1        0.4523
     19 F         137.3283  139.6415  161.5349 F       1  UNL1       -0.1632
     20 F         138.5605  137.5326  163.2768 F       1  UNL1       -0.1632
     21 N         140.8929  140.0179  166.4381 N.pl3   1  UNL1       -0.3131
     22 H         140.8054  140.4176  167.3335 H       1  UNL1        0.1485
     23 C         142.0127  139.0624  166.1495 C.3     1  UNL1        0.1348
     24 C         142.8218  139.2121  164.8953 C.ar    1  UNL1        0.0788
     25 C         143.8793  140.2722  164.8071 C.ar    1  UNL1        0.0165
     26 C         144.6885  140.4220  163.5529 C.ar    1  UNL1        0.0029
     27 C         144.4401  139.5115  162.3870 C.ar    1  UNL1        0.0207
     28 C         143.3825  138.4514  162.4752 C.ar    1  UNL1        0.0985
     29 N         142.5734  138.3017  163.7294 N.ar    1  UNL1       -0.2464
@<TRIPOS>BOND
     1    17    18    1
     2    18    19    1
     3    18    20    1
     4    18     1    1
     5     1     2   ar
     6     2     3   ar
     7     3    21    1
     8    21    23    1
     9    23    24    1
    10    24    25   ar
    11    25    26   ar
    12    26    27   ar
    13    27    28   ar
    14    28    29   ar
    15     3     4   ar
    16     4     5   ar
    17     5    11    1
    18    11    12   ar
    19    12    13   ar
    20    13    14   ar
    21    14    15   ar
    22    15    16   ar
    23     5     6   ar
    24     6     7   ar
    25     7     8   ar
    26     8     9   ar
    27     9    10   ar
    28    10     1   ar
    29    29    24   ar
    30     9     4   ar
    31    16    11   ar
    32    21    22    1
@<TRIPOS>MOLECULE
*****
 29 32 0 0 0
SMALL
GASTEIGER

@<TRIPOS>ATOM
      1 C         143.7379  139.5763  165.4103 C.ar    1  UNL1        0.2362
      2 N         142.2863  139.9261  165.5544 N.ar    1  UNL1       -0.2086
      3 C         141.7301  141.1259  164.8465 C.ar    1  UNL1        0.1318
      4 C         142.6255  141.9759  163.9946 C.ar    1  UNL1        0.0491
      5 C         142.0692  143.1757  163.2867 C.ar    1  UNL1        0.0041
      6 C         142.9645  144.0258  162.4347 C.ar    1  UNL1        0.0002
      7 C         144.4160  143.6761  162.2907 C.ar    1  UNL1        0.0015
      8 C         144.9722  142.4763  162.9985 C.ar    1  UNL1        0.0192
      9 C         144.0770  141.6262  163.8505 C.ar    1  UNL1        0.0856
     10 N         144.6332  140.4264  164.5584 N.ar    1  UNL1       -0.2232
     11 C         140.6176  143.5255  163.4308 C.ar    1  UNL1        0.0001
     12 C         139.6156  142.9860  162.4537 C.ar    1  UNL1        0.0000
     13 C         138.1640  143.3357  162.5978 C.ar    1  UNL1        0.0000
     14 C         137.7146  144.2249  163.7190 C.ar    1  UNL1        0.0000
     15 C         138.7167  144.7644  164.6962 C.ar    1  UNL1        0.0000
     16 C         140.1682  144.4147  164.5521 C.ar    1  UNL1        0.0000
     17 F         144.8504  137.1767  166.8260 F       1  UNL1       -0.1632
     18 C         144.2942  138.3765  166.1182 C.3     1  UNL1        0.4523
     19 F         143.0034  138.2193  166.8659 F       1  UNL1       -0.1632
     20 F         145.5850  138.5338  165.3705 F       1  UNL1       -0.1632
     21 N         140.2786  141.4756  164.9906 N.pl3   1  UNL1       -0.3131
     22 H         139.8428  142.0532  164.3230 H       1  UNL1        0.1485
     23 C         139.4910  140.9453  166.1519 C.3     1  UNL1        0.1348
     24 C         139.8579  141.3429  167.5510 C.ar    1  UNL1        0.0788
     25 C         140.3848  142.7202  167.8255 C.ar    1  UNL1        0.0165
     26 C         140.7517  143.1177  169.2246 C.ar    1  UNL1        0.0029
     27 C         140.5916  142.1380  170.3491 C.ar    1  UNL1        0.0207
     28 C         140.0647  140.7606  170.0745 C.ar    1  UNL1        0.0985
     29 N         139.6979  140.3631  168.6755 N.ar    1  UNL1       -0.2464
@<TRIPOS>BOND
     1    17    18    1
     2    18    19    1
     3    18    20    1
     4    18     1    1
     5     1     2   ar
     6     2     3   ar
     7     3    21    1
     8    21    23    1
     9    23    24    1
    10    24    25   ar
    11    25    26   ar
    12    26    27   ar
    13    27    28   ar
    14    28    29   ar
    15     3     4   ar
    16     4     5   ar
    17     5    11    1
    18    11    12   ar
    19    12    13   ar
    20    13    14   ar
    21    14    15   ar
    22    15    16   ar
    23     5     6   ar
    24     6     7   ar
    25     7     8   ar
    26     8     9   ar
    27     9    10   ar
    28    10     1   ar
    29    29    24   ar
    30     9     4   ar
    31    16    11   ar
    32    21    22    1
@<TRIPOS>MOLECULE
*****
 29 32 0 0 0
SMALL
GASTEIGER

@<TRIPOS>ATOM
      1 C         139.2259  139.5291  166.8817 C.ar    1  UNL1        0.2362
      2 N         139.7481  139.9461  165.5388 N.ar    1  UNL1       -0.2086
      3 C         140.9733  140.8064  165.4446 C.ar    1  UNL1        0.1318
      4 C         141.6763  141.2496  166.6934 C.ar    1  UNL1        0.0491
      5 C         142.9015  142.1098  166.5992 C.ar    1  UNL1        0.0041
      6 C         143.6045  142.5530  167.8479 C.ar    1  UNL1        0.0002
      7 C         143.0824  142.1359  169.1908 C.ar    1  UNL1        0.0015
      8 C         141.8571  141.2757  169.2850 C.ar    1  UNL1        0.0192
      9 C         141.1541  140.8325  168.0363 C.ar    1  UNL1        0.0856
     10 N         139.9289  139.9723  168.1304 N.ar    1  UNL1       -0.2232
     11 C         143.4237  142.5268  165.2563 C.ar    1  UNL1        0.0001
     12 C         144.4757  141.7050  164.5724 C.ar    1  UNL1        0.0000
     13 C         144.9979  142.1220  163.2294 C.ar    1  UNL1        0.0000
     14 C         144.4680  143.3610  162.5704 C.ar    1  UNL1        0.0000
     15 C         143.4159  144.1828  163.2544 C.ar    1  UNL1        0.0000
     16 C         142.8938  143.7658  164.5973 C.ar    1  UNL1        0.0000
     17 F         136.7755  137.8086  167.0701 F       1  UNL1       -0.1632
     18 C         138.0007  138.6689  166.9759 C.3     1  UNL1        0.4523
     19 F         137.7605  139.1638  168.3714 F       1  UNL1       -0.1632
     20 F         138.2409  138.1740  165.5804 F       1  UNL1       -0.1632
     21 N         141.4955  141.2234  164.1017 N.pl3   1  UNL1       -0.3131
     22 H         142.2370  141.8681  164.0405 H       1  UNL1        0.1485
     23 C         140.8879  140.6582  162.8521 C.3     1  UNL1        0.1348
     24 C         141.6499  139.6588  162.0333 C.ar    1  UNL1        0.0788
     25 C         142.8915  139.0257  162.5878 C.ar    1  UNL1        0.0165
     26 C         143.6536  138.0262  161.7690 C.ar    1  UNL1        0.0029
     27 C         143.1740  137.6600  160.3957 C.ar    1  UNL1        0.0207
     28 C         141.9324  138.2932  159.8412 C.ar    1  UNL1        0.0985
     29 N         141.1703  139.2926  160.6600 N.ar    1  UNL1       -0.2464
@<TRIPOS>BOND
     1    17    18    1
     2    18    19    1
     3    18    20    1
     4    18     1    1
     5     1     2   ar
     6     2     3   ar
     7     3    21    1
     8    21    23    1
     9    23    24    1
    10    24    25   ar
    11    25    26   ar
    12    26    27   ar
    13    27    28   ar
    14    28    29   ar
    15     3     4   ar
    16     4     5   ar
    17     5    11    1
    18    11    12   ar
    19    12    13   ar
    20    13    14   ar
    21    14    15   ar
    22    15    16   ar
    23     5     6   ar
    24     6     7   ar
    25     7     8   ar
    26     8     9   ar
    27     9    10   ar
    28    10     1   ar
    29    29    24   ar
    30     9     4   ar
    31    16    11   ar
    32    21    22    1
