@<TRIPOS>MOLECULE
*****
 26 28 0 0 0
SMALL
GASTEIGER

@<TRIPOS>ATOM
      1 C         140.8402  144.6397  163.3603 C.3     1  UNL1        0.0716
      2 C         141.8754  143.6496  163.8053 C.3     1  UNL1        0.0199
      3 C         141.6620  142.8536  165.0587 C.3     1  UNL1        0.0060
      4 C         140.4135  143.0478  165.8670 C.3     1  UNL1        0.0224
      5 C         139.3783  144.0378  165.4221 C.3     1  UNL1        0.0060
      6 C         139.5916  144.8339  164.1687 C.3     1  UNL1        0.0199
      7 C         140.2001  142.2518  167.1204 C.ar    1  UNL1       -0.0223
      8 C         139.7568  140.8214  167.0341 C.ar    1  UNL1       -0.0012
      9 C         139.5434  140.0254  168.2874 C.ar    1  UNL1        0.0363
     10 C         139.7734  140.6598  169.6271 C.ar    1  UNL1        0.1337
     11 O         139.5600  139.8638  170.8804 O.3     1  UNL1       -0.5055
     12 C         140.2167  142.0902  169.7134 C.ar    1  UNL1        0.0363
     13 C         140.4301  142.8862  168.4600 C.ar    1  UNL1       -0.0012
     14 H         139.2831  138.9703  170.8265 H       1  UNL1        0.2922
     15 O         139.2727  143.9906  160.8862 O.2     1  UNL1       -0.2751
     16 C         140.2698  145.1111  160.8699 C.2     1  UNL1        0.2228
     17 N         141.0535  145.4357  162.1070 N.am    1  UNL1       -0.3060
     18 H         141.7079  146.1711  162.0963 H       1  UNL1        0.1494
     19 C         140.4831  145.9071  159.6165 C.3     1  UNL1        0.0913
     20 C         140.4908  145.2194  158.2835 C.3     1  UNL1        0.0554
     21 C         140.2471  146.0082  157.0311 C.ar    1  UNL1        0.0595
     22 C         141.0117  145.6865  155.7814 C.ar    1  UNL1        0.0148
     23 C         140.7681  146.4754  154.5291 C.ar    1  UNL1        0.0028
     24 C         139.7598  147.5859  154.5265 C.ar    1  UNL1        0.0207
     25 C         138.9952  147.9077  155.7762 C.ar    1  UNL1        0.0984
     26 N         139.2389  147.1188  157.0285 N.ar    1  UNL1       -0.2481
@<TRIPOS>BOND
     1    15    16    2
     2    16    19    1
     3    19    20    1
     4    20    21    1
     5    21    22   ar
     6    22    23   ar
     7    23    24   ar
     8    24    25   ar
     9    25    26   ar
    10    16    17   am
    11     1    17    1
    12     1     2    1
    13     2     3    1
    14     3     4    1
    15     4     7    1
    16     7     8   ar
    17     8     9   ar
    18     9    10   ar
    19    10    11    1
    20    10    12   ar
    21    12    13   ar
    22     4     5    1
    23     5     6    1
    24    26    21   ar
    25     6     1    1
    26    13     7   ar
    27    17    18    1
    28    11    14    1
@<TRIPOS>MOLECULE
*****
 26 28 0 0 0
SMALL
GASTEIGER

@<TRIPOS>ATOM
      1 C         140.8937  144.6277  163.4408 C.3     1  UNL1        0.0716
      2 C         139.6312  144.8133  164.2293 C.3     1  UNL1        0.0199
      3 C         139.4021  144.0135  165.4774 C.3     1  UNL1        0.0060
      4 C         140.4354  143.0281  165.9370 C.3     1  UNL1        0.0224
      5 C         141.6979  142.8425  165.1485 C.3     1  UNL1        0.0060
      6 C         141.9270  143.6423  163.9003 C.3     1  UNL1        0.0199
      7 C         140.2063  142.2283  167.1851 C.ar    1  UNL1       -0.0223
      8 C         139.7684  140.7969  167.0888 C.ar    1  UNL1       -0.0012
      9 C         139.5393  139.9971  168.3369 C.ar    1  UNL1        0.0363
     10 C         139.7481  140.6287  169.6814 C.ar    1  UNL1        0.1337
     11 O         139.5190  139.8288  170.9295 O.3     1  UNL1       -0.5055
     12 C         140.1860  142.0601  169.7777 C.ar    1  UNL1        0.0363
     13 C         140.4151  142.8599  168.5296 C.ar    1  UNL1       -0.0012
     14 H         139.2455  138.9346  170.8693 H       1  UNL1        0.2922
     15 O         139.3158  144.0241  160.9617 O.2     1  UNL1       -0.2751
     16 C         140.3339  145.1257  160.9532 C.2     1  UNL1        0.2228
     17 N         141.1228  145.4275  162.1927 N.am    1  UNL1       -0.3060
     18 H         141.7910  146.1505  162.1870 H       1  UNL1        0.1494
     19 C         140.5629  145.9255  159.7050 C.3     1  UNL1        0.0913
     20 C         140.8971  145.2295  158.4190 C.3     1  UNL1        0.0554
     21 C         139.9248  145.2564  157.2770 C.ar    1  UNL1        0.0595
     22 C         139.6569  146.5409  156.5502 C.ar    1  UNL1        0.0148
     23 C         138.6847  146.5677  155.4083 C.ar    1  UNL1        0.0028
     24 C         137.9804  145.3101  154.9931 C.ar    1  UNL1        0.0207
     25 C         138.2484  144.0256  155.7199 C.ar    1  UNL1        0.0984
     26 N         139.2206  143.9987  156.8618 N.ar    1  UNL1       -0.2481
@<TRIPOS>BOND
     1    15    16    2
     2    16    19    1
     3    19    20    1
     4    20    21    1
     5    21    22   ar
     6    22    23   ar
     7    23    24   ar
     8    24    25   ar
     9    25    26   ar
    10    16    17   am
    11     1    17    1
    12     1     2    1
    13     2     3    1
    14     3     4    1
    15     4     7    1
    16     7     8   ar
    17     8     9   ar
    18     9    10   ar
    19    10    11    1
    20    10    12   ar
    21    12    13   ar
    22     4     5    1
    23     5     6    1
    24    26    21   ar
    25     6     1    1
    26    13     7   ar
    27    17    18    1
    28    11    14    1
@<TRIPOS>MOLECULE
*****
 26 28 0 0 0
SMALL
GASTEIGER

@<TRIPOS>ATOM
      1 C         140.8341  144.5689  163.6256 C.3     1  UNL1        0.0716
      2 C         141.9072  143.6177  164.0659 C.3     1  UNL1        0.0199
      3 C         141.7545  142.8568  165.3495 C.3     1  UNL1        0.0060
      4 C         140.5287  143.0471  166.1929 C.3     1  UNL1        0.0224
      5 C         139.4557  143.9983  165.7527 C.3     1  UNL1        0.0060
      6 C         139.6084  144.7592  164.4690 C.3     1  UNL1        0.0199
      7 C         140.3760  142.2863  167.4766 C.ar    1  UNL1       -0.0223
      8 C         140.0848  140.8151  167.4463 C.ar    1  UNL1       -0.0012
      9 C         139.9321  140.0542  168.7299 C.ar    1  UNL1        0.0363
     10 C         140.0705  140.7645  170.0438 C.ar    1  UNL1        0.1337
     11 O         139.9177  140.0035  171.3275 O.3     1  UNL1       -0.5055
     12 C         140.3616  142.2356  170.0741 C.ar    1  UNL1        0.0363
     13 C         140.5144  142.9965  168.7905 C.ar    1  UNL1       -0.0012
     14 H         139.7359  139.0845  171.3086 H       1  UNL1        0.2922
     15 O         139.0758  143.9248  161.2819 O.2     1  UNL1       -0.2751
     16 C         140.1077  145.0077  161.1702 C.2     1  UNL1        0.2228
     17 N         140.9869  145.3298  162.3420 N.am    1  UNL1       -0.3060
     18 H         141.6642  146.0405  162.2687 H       1  UNL1        0.1494
     19 C         140.2604  145.7686  159.8865 C.3     1  UNL1        0.0913
     20 C         141.2602  145.3191  158.8626 C.3     1  UNL1        0.0554
     21 C         142.0181  144.0406  159.0651 C.ar    1  UNL1        0.0595
     22 C         141.8341  142.9000  158.1084 C.ar    1  UNL1        0.0148
     23 C         142.5920  141.6216  158.3110 C.ar    1  UNL1        0.0028
     24 C         143.5338  141.4836  159.4703 C.ar    1  UNL1        0.0207
     25 C         143.7178  142.6241  160.4270 C.ar    1  UNL1        0.0984
     26 N         142.9599  143.9026  160.2244 N.ar    1  UNL1       -0.2481
@<TRIPOS>BOND
     1    15    16    2
     2    16    19    1
     3    19    20    1
     4    20    21    1
     5    21    22   ar
     6    22    23   ar
     7    23    24   ar
     8    24    25   ar
     9    25    26   ar
    10    16    17   am
    11     1    17    1
    12     1     2    1
    13     2     3    1
    14     3     4    1
    15     4     7    1
    16     7     8   ar
    17     8     9   ar
    18     9    10   ar
    19    10    11    1
    20    10    12   ar
    21    12    13   ar
    22     4     5    1
    23     5     6    1
    24    26    21   ar
    25     6     1    1
    26    13     7   ar
    27    17    18    1
    28    11    14    1
@<TRIPOS>MOLECULE
*****
 26 28 0 0 0
SMALL
GASTEIGER

@<TRIPOS>ATOM
      1 C         143.4806  139.4079  164.3888 C.3     1  UNL1        0.0716
      2 C         143.0044  140.8217  164.5458 C.3     1  UNL1        0.0199
      3 C         142.4999  141.2999  165.8750 C.3     1  UNL1        0.0060
      4 C         142.4715  140.3643  167.0472 C.3     1  UNL1        0.0224
      5 C         142.9477  138.9506  166.8902 C.3     1  UNL1        0.0060
      6 C         143.4522  138.4724  165.5609 C.3     1  UNL1        0.0199
      7 C         141.9670  140.8425  168.3763 C.ar    1  UNL1       -0.0223
      8 C         142.4664  142.1369  168.9467 C.ar    1  UNL1       -0.0012
      9 C         141.9619  142.6151  170.2758 C.ar    1  UNL1        0.0363
     10 C         140.9580  141.7989  171.0348 C.ar    1  UNL1        0.1337
     11 O         140.4534  142.2772  172.3640 O.3     1  UNL1       -0.5055
     12 C         140.4586  140.5046  170.4645 C.ar    1  UNL1        0.0363
     13 C         140.9631  140.0263  169.1353 C.ar    1  UNL1       -0.0012
     14 H         140.7654  143.0857  172.7202 H       1  UNL1        0.2922
     15 O         141.5849  138.1653  162.4236 O.2     1  UNL1       -0.2751
     16 C         143.0373  138.3084  162.0770 C.2     1  UNL1        0.2228
     17 N         143.9851  138.9297  163.0596 N.am    1  UNL1       -0.3060
     18 H         144.9384  139.0237  162.8321 H       1  UNL1        0.1494
     19 C         143.5418  137.8302  160.7478 C.3     1  UNL1        0.0913
     20 C         143.0759  138.4939  159.4858 C.3     1  UNL1        0.0554
     21 C         143.6816  139.7972  159.0562 C.ar    1  UNL1        0.0595
     22 C         143.6180  140.9893  159.9643 C.ar    1  UNL1        0.0148
     23 C         144.2236  142.2926  159.5347 C.ar    1  UNL1        0.0028
     24 C         144.8928  142.4038  158.1968 C.ar    1  UNL1        0.0207
     25 C         144.9564  141.2117  157.2886 C.ar    1  UNL1        0.0984
     26 N         144.3508  139.9084  157.7183 N.ar    1  UNL1       -0.2481
@<TRIPOS>BOND
     1    15    16    2
     2    16    19    1
     3    19    20    1
     4    20    21    1
     5    21    22   ar
     6    22    23   ar
     7    23    24   ar
     8    24    25   ar
     9    25    26   ar
    10    16    17   am
    11     1    17    1
    12     1     2    1
    13     2     3    1
    14     3     4    1
    15     4     7    1
    16     7     8   ar
    17     8     9   ar
    18     9    10   ar
    19    10    11    1
    20    10    12   ar
    21    12    13   ar
    22     4     5    1
    23     5     6    1
    24    26    21   ar
    25     6     1    1
    26    13     7   ar
    27    17    18    1
    28    11    14    1
@<TRIPOS>MOLECULE
*****
 26 28 0 0 0
SMALL
GASTEIGER

@<TRIPOS>ATOM
      1 C         138.2036  140.8130  163.8687 C.3     1  UNL1        0.0716
      2 C         138.8254  142.1375  164.1993 C.3     1  UNL1        0.0199
      3 C         139.4836  142.3454  165.5310 C.3     1  UNL1        0.0060
      4 C         139.5201  141.2289  166.5321 C.3     1  UNL1        0.0224
      5 C         138.8984  139.9045  166.2015 C.3     1  UNL1        0.0060
      6 C         138.2402  139.6965  164.8697 C.3     1  UNL1        0.0199
      7 C         140.1783  141.4369  167.8638 C.ar    1  UNL1       -0.0223
      8 C         140.3551  140.2798  168.8020 C.ar    1  UNL1       -0.0012
      9 C         141.0133  140.4878  170.1337 C.ar    1  UNL1        0.0363
     10 C         141.4948  141.8528  170.5273 C.ar    1  UNL1        0.1337
     11 O         142.1530  142.0607  171.8591 O.3     1  UNL1       -0.5055
     12 C         141.3180  143.0098  169.5892 C.ar    1  UNL1        0.0363
     13 C         140.6598  142.8019  168.2575 C.ar    1  UNL1       -0.0012
     14 H         142.2634  141.3379  172.4451 H       1  UNL1        0.2922
     15 O         139.8641  140.1314  161.4649 O.2     1  UNL1       -0.2751
     16 C         138.3757  140.2642  161.3351 C.2     1  UNL1        0.2228
     17 N         137.5454  140.6050  162.5370 N.am    1  UNL1       -0.3060
     18 H         136.5685  140.6922  162.4517 H       1  UNL1        0.1494
     19 C         137.7175  140.0563  160.0033 C.3     1  UNL1        0.0913
     20 C         138.4054  140.5057  158.7484 C.3     1  UNL1        0.0554
     21 C         137.6105  141.1289  157.6394 C.ar    1  UNL1        0.0595
     22 C         137.9763  142.4908  157.1281 C.ar    1  UNL1        0.0148
     23 C         137.1814  143.1139  156.0191 C.ar    1  UNL1        0.0028
     24 C         136.0207  142.3752  155.4215 C.ar    1  UNL1        0.0207
     25 C         135.6550  141.0133  155.9328 C.ar    1  UNL1        0.0984
     26 N         136.4498  140.3902  157.0417 N.ar    1  UNL1       -0.2481
@<TRIPOS>BOND
     1    15    16    2
     2    16    19    1
     3    19    20    1
     4    20    21    1
     5    21    22   ar
     6    22    23   ar
     7    23    24   ar
     8    24    25   ar
     9    25    26   ar
    10    16    17   am
    11     1    17    1
    12     1     2    1
    13     2     3    1
    14     3     4    1
    15     4     7    1
    16     7     8   ar
    17     8     9   ar
    18     9    10   ar
    19    10    11    1
    20    10    12   ar
    21    12    13   ar
    22     4     5    1
    23     5     6    1
    24    26    21   ar
    25     6     1    1
    26    13     7   ar
    27    17    18    1
    28    11    14    1
@<TRIPOS>MOLECULE
*****
 26 28 0 0 0
SMALL
GASTEIGER

@<TRIPOS>ATOM
      1 C         139.1952  139.8380  163.9833 C.3     1  UNL1        0.0716
      2 C         140.3713  140.7567  164.1348 C.3     1  UNL1        0.0199
      3 C         140.8273  141.1721  165.5020 C.3     1  UNL1        0.0060
      4 C         140.1073  140.6688  166.7179 C.3     1  UNL1        0.0224
      5 C         138.9313  139.7502  166.5665 C.3     1  UNL1        0.0060
      6 C         138.4752  139.3347  165.1992 C.3     1  UNL1        0.0199
      7 C         140.5633  141.0843  168.0851 C.ar    1  UNL1       -0.0223
      8 C         140.8517  140.0449  169.1276 C.ar    1  UNL1       -0.0012
      9 C         141.3077  140.4603  170.4948 C.ar    1  UNL1        0.0363
     10 C         141.4754  141.9151  170.8197 C.ar    1  UNL1        0.1337
     11 O         141.9314  142.3305  172.1871 O.3     1  UNL1       -0.5055
     12 C         141.1870  142.9544  169.7774 C.ar    1  UNL1        0.0363
     13 C         140.7310  142.5390  168.4100 C.ar    1  UNL1       -0.0012
     14 H         142.1115  141.6812  172.8382 H       1  UNL1        0.2922
     15 O         137.1704  141.4908  162.5110 O.2     1  UNL1       -0.2751
     16 C         137.7268  140.2490  161.8799 C.2     1  UNL1        0.2228
     17 N         138.7392  139.4225  162.6161 N.am    1  UNL1       -0.3060
     18 H         139.1043  138.6075  162.2019 H       1  UNL1        0.1494
     19 C         137.2707  139.8335  160.5126 C.3     1  UNL1        0.0913
     20 C         137.9673  140.3662  159.2956 C.3     1  UNL1        0.0554
     21 C         139.0409  141.4038  159.4398 C.ar    1  UNL1        0.0595
     22 C         140.4816  140.9899  159.4939 C.ar    1  UNL1        0.0148
     23 C         141.5551  142.0275  159.6381 C.ar    1  UNL1        0.0028
     24 C         141.1879  143.4791  159.7282 C.ar    1  UNL1        0.0207
     25 C         139.7472  143.8930  159.6741 C.ar    1  UNL1        0.0984
     26 N         138.6737  142.8554  159.5299 N.ar    1  UNL1       -0.2481
@<TRIPOS>BOND
     1    15    16    2
     2    16    19    1
     3    19    20    1
     4    20    21    1
     5    21    22   ar
     6    22    23   ar
     7    23    24   ar
     8    24    25   ar
     9    25    26   ar
    10    16    17   am
    11     1    17    1
    12     1     2    1
    13     2     3    1
    14     3     4    1
    15     4     7    1
    16     7     8   ar
    17     8     9   ar
    18     9    10   ar
    19    10    11    1
    20    10    12   ar
    21    12    13   ar
    22     4     5    1
    23     5     6    1
    24    26    21   ar
    25     6     1    1
    26    13     7   ar
    27    17    18    1
    28    11    14    1
@<TRIPOS>MOLECULE
*****
 26 28 0 0 0
SMALL
GASTEIGER

@<TRIPOS>ATOM
      1 C         142.0017  138.2647  164.2164 C.3     1  UNL1        0.0716
      2 C         143.1315  138.3861  165.1957 C.3     1  UNL1        0.0199
      3 C         142.9022  139.0346  166.5287 C.3     1  UNL1        0.0060
      4 C         141.5432  139.5617  166.8824 C.3     1  UNL1        0.0224
      5 C         140.4134  139.4404  165.9032 C.3     1  UNL1        0.0060
      6 C         140.6427  138.7918  164.5702 C.3     1  UNL1        0.0199
      7 C         141.3139  140.2102  168.2154 C.ar    1  UNL1       -0.0223
      8 C         139.9961  140.8605  168.5164 C.ar    1  UNL1       -0.0012
      9 C         139.7668  141.5090  169.8493 C.ar    1  UNL1        0.0363
     10 C         140.8553  141.5072  170.8814 C.ar    1  UNL1        0.1337
     11 O         140.6259  142.1557  172.2144 O.3     1  UNL1       -0.5055
     12 C         142.1730  140.8570  170.5805 C.ar    1  UNL1        0.0363
     13 C         142.4024  140.2084  169.2475 C.ar    1  UNL1       -0.0012
     14 H         139.8027  142.5619  172.4024 H       1  UNL1        0.2922
     15 O         143.5449  139.7124  162.0898 O.2     1  UNL1       -0.2751
     16 C         143.0026  138.3401  161.8201 C.2     1  UNL1        0.2228
     17 N         142.2310  137.6162  162.8835 N.am    1  UNL1       -0.3060
     18 H         141.8751  136.7156  162.7065 H       1  UNL1        0.1494
     19 C         143.2319  137.6916  160.4871 C.3     1  UNL1        0.0913
     20 C         142.3808  138.0716  159.3119 C.3     1  UNL1        0.0554
     21 C         142.9162  137.9222  157.9186 C.ar    1  UNL1        0.0595
     22 C         142.8796  136.5848  157.2405 C.ar    1  UNL1        0.0148
     23 C         143.4150  136.4355  155.8472 C.ar    1  UNL1        0.0028
     24 C         143.9868  137.6236  155.1322 C.ar    1  UNL1        0.0207
     25 C         144.0234  138.9610  155.8103 C.ar    1  UNL1        0.0984
     26 N         143.4880  139.1103  157.2035 N.ar    1  UNL1       -0.2481
@<TRIPOS>BOND
     1    15    16    2
     2    16    19    1
     3    19    20    1
     4    20    21    1
     5    21    22   ar
     6    22    23   ar
     7    23    24   ar
     8    24    25   ar
     9    25    26   ar
    10    16    17   am
    11     1    17    1
    12     1     2    1
    13     2     3    1
    14     3     4    1
    15     4     7    1
    16     7     8   ar
    17     8     9   ar
    18     9    10   ar
    19    10    11    1
    20    10    12   ar
    21    12    13   ar
    22     4     5    1
    23     5     6    1
    24    26    21   ar
    25     6     1    1
    26    13     7   ar
    27    17    18    1
    28    11    14    1
@<TRIPOS>MOLECULE
*****
 26 28 0 0 0
SMALL
GASTEIGER

@<TRIPOS>ATOM
      1 C         143.8644  141.7620  163.8173 C.3     1  UNL1        0.0716
      2 C         144.3270  142.8405  164.7516 C.3     1  UNL1        0.0199
      3 C         143.7733  142.9152  166.1436 C.3     1  UNL1        0.0060
      4 C         142.7570  141.9115  166.6014 C.3     1  UNL1        0.0224
      5 C         142.2943  140.8331  165.6672 C.3     1  UNL1        0.0060
      6 C         142.8480  140.7583  164.2750 C.3     1  UNL1        0.0199
      7 C         142.2033  141.9862  167.9934 C.ar    1  UNL1       -0.0223
      8 C         142.8856  141.2562  169.1122 C.ar    1  UNL1       -0.0012
      9 C         142.3319  141.3309  170.5042 C.ar    1  UNL1        0.0363
     10 C         141.0959  142.1356  170.7776 C.ar    1  UNL1        0.1337
     11 O         140.5422  142.2103  172.1697 O.3     1  UNL1       -0.5055
     12 C         140.4135  142.8656  169.6589 C.ar    1  UNL1        0.0363
     13 C         140.9672  142.7909  168.2668 C.ar    1  UNL1       -0.0012
     14 H         140.9684  141.7543  172.8685 H       1  UNL1        0.2922
     15 O         142.7977  143.5762  161.6794 O.2     1  UNL1       -0.2751
     16 C         143.8847  142.5944  161.3563 C.2     1  UNL1        0.2228
     17 N         144.4181  141.6873  162.4252 N.am    1  UNL1       -0.3060
     18 H         145.1315  141.0429  162.2132 H       1  UNL1        0.1494
     19 C         144.4384  142.5197  159.9642 C.3     1  UNL1        0.0913
     20 C         144.1482  141.3252  159.1047 C.3     1  UNL1        0.0554
     21 C         143.4764  140.1213  159.6958 C.ar    1  UNL1        0.0595
     22 C         141.9876  139.9685  159.5957 C.ar    1  UNL1        0.0148
     23 C         141.3158  138.7646  160.1868 C.ar    1  UNL1        0.0028
     24 C         142.1329  137.7136  160.8780 C.ar    1  UNL1        0.0207
     25 C         143.6217  137.8664  160.9781 C.ar    1  UNL1        0.0984
     26 N         144.2934  139.0702  160.3870 N.ar    1  UNL1       -0.2481
@<TRIPOS>BOND
     1    15    16    2
     2    16    19    1
     3    19    20    1
     4    20    21    1
     5    21    22   ar
     6    22    23   ar
     7    23    24   ar
     8    24    25   ar
     9    25    26   ar
    10    16    17   am
    11     1    17    1
    12     1     2    1
    13     2     3    1
    14     3     4    1
    15     4     7    1
    16     7     8   ar
    17     8     9   ar
    18     9    10   ar
    19    10    11    1
    20    10    12   ar
    21    12    13   ar
    22     4     5    1
    23     5     6    1
    24    26    21   ar
    25     6     1    1
    26    13     7   ar
    27    17    18    1
    28    11    14    1
@<TRIPOS>MOLECULE
*****
 26 28 0 0 0
SMALL
GASTEIGER

@<TRIPOS>ATOM
      1 C         142.0150  138.3355  164.2090 C.3     1  UNL1        0.0716
      2 C         140.6713  138.9326  164.5060 C.3     1  UNL1        0.0199
      3 C         140.4130  139.5731  165.8375 C.3     1  UNL1        0.0060
      4 C         141.4983  139.6167  166.8720 C.3     1  UNL1        0.0224
      5 C         142.8419  139.0197  166.5751 C.3     1  UNL1        0.0060
      6 C         143.1003  138.3791  165.2435 C.3     1  UNL1        0.0199
      7 C         141.2399  140.2572  168.2035 C.ar    1  UNL1       -0.0223
      8 C         139.8426  140.3246  168.7449 C.ar    1  UNL1       -0.0012
      9 C         139.5842  140.9652  170.0764 C.ar    1  UNL1        0.0363
     10 C         140.7231  141.5384  170.8666 C.ar    1  UNL1        0.1337
     11 O         140.4647  142.1789  172.1981 O.3     1  UNL1       -0.5055
     12 C         142.1204  141.4710  170.3252 C.ar    1  UNL1        0.0363
     13 C         142.3788  140.8304  168.9937 C.ar    1  UNL1       -0.0012
     14 H         139.5919  142.2210  172.5363 H       1  UNL1        0.2922
     15 O         143.6687  139.7634  162.1532 O.2     1  UNL1       -0.2751
     16 C         143.1002  138.4089  161.8496 C.2     1  UNL1        0.2228
     17 N         142.2734  137.6950  162.8775 N.am    1  UNL1       -0.3060
     18 H         141.9002  136.8060  162.6782 H       1  UNL1        0.1494
     19 C         143.3586  137.7684  160.5180 C.3     1  UNL1        0.0913
     20 C         142.4012  137.9840  159.3837 C.3     1  UNL1        0.0554
     21 C         141.1336  138.7540  159.6081 C.ar    1  UNL1        0.0595
     22 C         140.9263  140.0731  158.9248 C.ar    1  UNL1        0.0148
     23 C         139.6587  140.8430  159.1493 C.ar    1  UNL1        0.0028
     24 C         138.5984  140.2937  160.0570 C.ar    1  UNL1        0.0207
     25 C         138.8056  138.9746  160.7403 C.ar    1  UNL1        0.0984
     26 N         140.0732  138.2047  160.5158 N.ar    1  UNL1       -0.2481
@<TRIPOS>BOND
     1    15    16    2
     2    16    19    1
     3    19    20    1
     4    20    21    1
     5    21    22   ar
     6    22    23   ar
     7    23    24   ar
     8    24    25   ar
     9    25    26   ar
    10    16    17   am
    11     1    17    1
    12     1     2    1
    13     2     3    1
    14     3     4    1
    15     4     7    1
    16     7     8   ar
    17     8     9   ar
    18     9    10   ar
    19    10    11    1
    20    10    12   ar
    21    12    13   ar
    22     4     5    1
    23     5     6    1
    24    26    21   ar
    25     6     1    1
    26    13     7   ar
    27    17    18    1
    28    11    14    1
