@<TRIPOS>MOLECULE
*****
 32 36 0 0 0
SMALL
GASTEIGER

@<TRIPOS>ATOM
      1 C         138.7765  138.0204  161.3359 C.3     1  UNL1        0.0173
      2 C         142.4742  139.1851  159.0512 C.3     1  UNL1        0.0719
      3 C         141.1575  139.0754  158.3413 C.3     1  UNL1        0.0196
      4 C         139.9249  138.6871  159.1028 C.3     1  UNL1        0.0017
      5 C         140.0091  138.4086  160.5743 C.3     1  UNL1        0.0015
      6 C         141.3259  138.5183  161.2843 C.3     1  UNL1        0.0017
      7 C         142.5585  138.9066  160.5227 C.3     1  UNL1        0.0196
      8 O         142.9595  142.0609  158.3480 O.2     1  UNL1       -0.2668
      9 C         143.9494  141.0112  157.9381 C.2     1  UNL1        0.2805
     10 N         143.7069  139.5733  158.2897 N.am    1  UNL1       -0.3000
     11 H         144.3567  138.8844  158.0207 H       1  UNL1        0.1498
     12 C         145.1821  141.3994  157.1765 C.ar    1  UNL1        0.1985
     13 C         145.6749  140.7607  155.9120 C.ar    1  UNL1        0.0454
     14 C         146.9357  141.4610  155.4999 C.ar    1  UNL1        0.0440
     15 C         147.2222  142.5325  156.5096 C.ar    1  UNL1        0.1798
     16 O         146.1384  142.4944  157.5460 O.2     1  UNL1       -0.4458
     17 C         138.0426  139.0460  162.1479 C.3     1  UNL1        0.0722
     18 N         138.4814  139.3466  163.5505 N.3     1  UNL1       -0.2698
     19 C         138.8997  138.2303  164.4609 C.3     1  UNL1        0.0939
     20 C         139.3386  138.5308  165.8634 C.3     1  UNL1        0.1095
     21 N         139.3591  139.9477  166.3556 N.pl3   1  UNL1       -0.2899
     22 C         138.9408  141.0639  165.4451 C.3     1  UNL1        0.1095
     23 C         138.5019  140.7634  164.0426 C.3     1  UNL1        0.0939
     24 C         139.7979  140.2483  167.7581 C.ar    1  UNL1        0.1400
     25 N         139.0715  139.8597  169.0116 N.ar    1  UNL1       -0.1943
     26 S         139.8649  140.3614  170.1815 S.2     1  UNL1        0.0144
     27 C         141.0817  141.0601  169.6511 C.ar    1  UNL1        0.0502
     28 C         142.2219  141.7510  170.3384 C.ar    1  UNL1        0.0080
     29 C         143.3208  142.3719  169.5280 C.ar    1  UNL1        0.0006
     30 C         143.2794  142.3019  168.0302 C.ar    1  UNL1        0.0001
     31 C         142.1392  141.6111  167.3428 C.ar    1  UNL1        0.0033
     32 C         141.0403  140.9902  168.1533 C.ar    1  UNL1        0.0396
@<TRIPOS>BOND
     1     8     9    2
     2     9    10   am
     3     2    10    1
     4     2     3    1
     5     3     4    1
     6     4     5    1
     7     5     1    1
     8     1    17    1
     9    17    18    1
    10    18    19    1
    11    19    20    1
    12    20    21    1
    13    21    24    1
    14    24    25   ar
    15    25    26   ar
    16    26    27   ar
    17    27    28   ar
    18    28    29   ar
    19    29    30   ar
    20    30    31   ar
    21    31    32   ar
    22    21    22    1
    23    22    23    1
    24     5     6    1
    25     6     7    1
    26     9    12    1
    27    12    13   ar
    28    13    14   ar
    29    14    15   ar
    30    15    16   ar
    31     7     2    1
    32    16    12   ar
    33    23    18    1
    34    32    24   ar
    35    32    27   ar
    36    10    11    1
@<TRIPOS>MOLECULE
*****
 32 36 0 0 0
SMALL
GASTEIGER

@<TRIPOS>ATOM
      1 C         141.2147  142.7708  166.4294 C.3     1  UNL1        0.0173
      2 C         139.0735  140.5122  169.6795 C.3     1  UNL1        0.0719
      3 C         139.6242  141.8801  169.9545 C.3     1  UNL1        0.0196
      4 C         140.3380  142.6330  168.8712 C.3     1  UNL1        0.0017
      5 C         140.5009  142.0180  167.5128 C.3     1  UNL1        0.0015
      6 C         139.9502  140.6501  167.2378 C.3     1  UNL1        0.0017
      7 C         139.2365  139.8972  168.3212 C.3     1  UNL1        0.0196
      8 O         136.9185  138.5486  168.9721 O.2     1  UNL1       -0.2668
      9 C         137.2823  138.7775  170.4092 C.2     1  UNL1        0.2805
     10 N         138.3598  139.7593  170.7629 N.am    1  UNL1       -0.3000
     11 H         138.5985  139.9095  171.7061 H       1  UNL1        0.1498
     12 C         136.5686  138.0246  171.4926 C.ar    1  UNL1        0.1985
     13 C         135.3597  138.4964  172.2448 C.ar    1  UNL1        0.0454
     14 C         134.9826  137.4310  173.2312 C.ar    1  UNL1        0.0440
     15 C         135.9583  136.3008  173.0886 C.ar    1  UNL1        0.1798
     16 O         136.9386  136.6677  172.0140 O.2     1  UNL1       -0.4458
     17 C         141.7557  142.0375  165.2379 C.3     1  UNL1        0.0722
     18 N         141.5616  142.5984  163.8603 N.3     1  UNL1       -0.2698
     19 C         140.3357  143.4027  163.5439 C.3     1  UNL1        0.0939
     20 C         140.1416  143.9636  162.1663 C.3     1  UNL1        0.1095
     21 N         141.1735  143.7201  161.1051 N.pl3   1  UNL1       -0.2899
     22 C         142.3993  142.9158  161.4216 C.3     1  UNL1        0.1095
     23 C         142.5934  142.3549  162.7992 C.3     1  UNL1        0.0939
     24 C         140.9794  144.2810  159.7275 C.ar    1  UNL1        0.1400
     25 N         141.7627  145.4036  159.1141 N.ar    1  UNL1       -0.1943
     26 S         141.2353  145.6341  157.7290 S.2     1  UNL1        0.0144
     27 C         140.1261  144.6540  157.4862 C.ar    1  UNL1        0.0502
     28 C         139.2396  144.4149  156.3001 C.ar    1  UNL1        0.0080
     29 C         138.1950  143.3397  156.3491 C.ar    1  UNL1        0.0006
     30 C         138.0368  142.5034  157.5843 C.ar    1  UNL1        0.0001
     31 C         138.9232  142.7424  158.7704 C.ar    1  UNL1        0.0033
     32 C         139.9679  143.8177  158.7214 C.ar    1  UNL1        0.0396
@<TRIPOS>BOND
     1     8     9    2
     2     9    10   am
     3     2    10    1
     4     2     3    1
     5     3     4    1
     6     4     5    1
     7     5     1    1
     8     1    17    1
     9    17    18    1
    10    18    19    1
    11    19    20    1
    12    20    21    1
    13    21    24    1
    14    24    25   ar
    15    25    26   ar
    16    26    27   ar
    17    27    28   ar
    18    28    29   ar
    19    29    30   ar
    20    30    31   ar
    21    31    32   ar
    22    21    22    1
    23    22    23    1
    24     5     6    1
    25     6     7    1
    26     9    12    1
    27    12    13   ar
    28    13    14   ar
    29    14    15   ar
    30    15    16   ar
    31     7     2    1
    32    16    12   ar
    33    23    18    1
    34    32    24   ar
    35    32    27   ar
    36    10    11    1
@<TRIPOS>MOLECULE
*****
 32 36 0 0 0
SMALL
GASTEIGER

@<TRIPOS>ATOM
      1 C         142.9574  139.2390  166.6884 C.3     1  UNL1        0.0173
      2 C         142.7676  137.8683  162.4065 C.3     1  UNL1        0.0719
      3 C         143.9462  138.6612  162.8886 C.3     1  UNL1        0.0196
      4 C         144.0094  139.1181  164.3160 C.3     1  UNL1        0.0017
      5 C         142.8942  138.7821  165.2610 C.3     1  UNL1        0.0015
      6 C         141.7156  137.9893  164.7789 C.3     1  UNL1        0.0017
      7 C         141.6524  137.5324  163.3516 C.3     1  UNL1        0.0196
      8 O         141.7313  139.7179  160.2839 O.2     1  UNL1       -0.2668
      9 C         142.1862  138.3362  159.9179 C.2     1  UNL1        0.2805
     10 N         142.7043  137.4115  160.9792 N.am    1  UNL1       -0.3000
     11 H         143.0029  136.5046  160.7389 H       1  UNL1        0.1498
     12 C         142.1229  137.8793  158.4906 C.ar    1  UNL1        0.1985
     13 C         140.9571  138.0471  157.5619 C.ar    1  UNL1        0.0454
     14 C         141.3282  137.4458  156.2388 C.ar    1  UNL1        0.0440
     15 C         142.7233  136.9062  156.3496 C.ar    1  UNL1        0.1798
     16 O         143.2146  137.1742  157.7414 O.2     1  UNL1       -0.4458
     17 C         142.5201  140.6271  167.0516 C.3     1  UNL1        0.0722
     18 N         142.0697  141.5759  165.9806 N.3     1  UNL1       -0.2698
     19 C         140.6450  141.5560  165.5117 C.3     1  UNL1        0.0939
     20 C         140.1946  142.5048  164.4407 C.3     1  UNL1        0.1095
     21 N         141.1690  143.4735  163.8386 N.pl3   1  UNL1       -0.2899
     22 C         142.5936  143.4933  164.3076 C.3     1  UNL1        0.1095
     23 C         143.0440  142.5445  165.3786 C.3     1  UNL1        0.0939
     24 C         140.7186  144.4222  162.7677 C.ar    1  UNL1        0.1400
     25 N         139.7672  145.5678  162.9478 N.ar    1  UNL1       -0.1943
     26 S         139.6012  146.2455  161.6200 S.2     1  UNL1        0.0144
     27 C         140.4500  145.5188  160.6192 C.ar    1  UNL1        0.0502
     28 C         140.6832  145.7376  159.1537 C.ar    1  UNL1        0.0080
     29 C         141.6071  144.8296  158.3976 C.ar    1  UNL1        0.0006
     30 C         142.2977  143.7027  159.1069 C.ar    1  UNL1        0.0001
     31 C         142.0644  143.4839  160.5724 C.ar    1  UNL1        0.0033
     32 C         141.1406  144.3919  161.3285 C.ar    1  UNL1        0.0396
@<TRIPOS>BOND
     1     8     9    2
     2     9    10   am
     3     2    10    1
     4     2     3    1
     5     3     4    1
     6     4     5    1
     7     5     1    1
     8     1    17    1
     9    17    18    1
    10    18    19    1
    11    19    20    1
    12    20    21    1
    13    21    24    1
    14    24    25   ar
    15    25    26   ar
    16    26    27   ar
    17    27    28   ar
    18    28    29   ar
    19    29    30   ar
    20    30    31   ar
    21    31    32   ar
    22    21    22    1
    23    22    23    1
    24     5     6    1
    25     6     7    1
    26     9    12    1
    27    12    13   ar
    28    13    14   ar
    29    14    15   ar
    30    15    16   ar
    31     7     2    1
    32    16    12   ar
    33    23    18    1
    34    32    24   ar
    35    32    27   ar
    36    10    11    1
@<TRIPOS>MOLECULE
*****
 32 36 0 0 0
SMALL
GASTEIGER

@<TRIPOS>ATOM
      1 C         143.5908  137.6742  160.8045 C.3     1  UNL1        0.0173
      2 C         142.3984  139.2430  164.8501 C.3     1  UNL1        0.0719
      3 C         143.6670  139.7178  164.2057 C.3     1  UNL1        0.0196
      4 C         144.0645  139.1949  162.8572 C.3     1  UNL1        0.0017
      5 C         143.1934  138.1972  162.1531 C.3     1  UNL1        0.0015
      6 C         141.9248  137.7224  162.7975 C.3     1  UNL1        0.0017
      7 C         141.5273  138.2453  164.1461 C.3     1  UNL1        0.0196
      8 O         143.7282  138.1831  167.3217 O.2     1  UNL1       -0.2668
      9 C         142.6658  139.2359  167.4344 C.2     1  UNL1        0.2805
     10 N         142.0009  139.7659  166.1987 N.am    1  UNL1       -0.3000
     11 H         141.3036  140.4569  166.2727 H       1  UNL1        0.1498
     12 C         142.2682  139.7589  168.7829 C.ar    1  UNL1        0.1985
     13 C         140.8660  140.0073  169.2539 C.ar    1  UNL1        0.0454
     14 C         140.9343  140.5272  170.6593 C.ar    1  UNL1        0.0440
     15 C         142.3787  140.6001  171.0569 C.ar    1  UNL1        0.1798
     16 O         143.2032  140.1252  169.8972 O.2     1  UNL1       -0.4458
     17 C         142.7520  137.9883  159.6014 C.3     1  UNL1        0.0722
     18 N         143.2314  138.9908  158.5938 N.3     1  UNL1       -0.2698
     19 C         143.8706  140.2680  159.0521 C.3     1  UNL1        0.0939
     20 C         144.3500  141.2705  158.0446 C.3     1  UNL1        0.1095
     21 N         144.1902  140.9957  156.5785 N.pl3   1  UNL1       -0.2899
     22 C         143.5511  139.7186  156.1203 C.3     1  UNL1        0.1095
     23 C         143.0716  138.7161  157.1279 C.3     1  UNL1        0.0939
     24 C         144.6697  141.9982  155.5710 C.ar    1  UNL1        0.1400
     25 N         143.8166  142.9960  154.8452 N.ar    1  UNL1       -0.1943
     26 S         144.7061  143.7933  153.9380 S.2     1  UNL1        0.0144
     27 C         146.1089  143.2883  154.1030 C.ar    1  UNL1        0.0502
     28 C         147.4037  143.6954  153.4647 C.ar    1  UNL1        0.0080
     29 C         148.6761  142.9930  153.8357 C.ar    1  UNL1        0.0006
     30 C         148.6536  141.8836  154.8449 C.ar    1  UNL1        0.0001
     31 C         147.3587  141.4765  155.4832 C.ar    1  UNL1        0.0033
     32 C         146.0863  142.1789  155.1123 C.ar    1  UNL1        0.0396
@<TRIPOS>BOND
     1     8     9    2
     2     9    10   am
     3     2    10    1
     4     2     3    1
     5     3     4    1
     6     4     5    1
     7     5     1    1
     8     1    17    1
     9    17    18    1
    10    18    19    1
    11    19    20    1
    12    20    21    1
    13    21    24    1
    14    24    25   ar
    15    25    26   ar
    16    26    27   ar
    17    27    28   ar
    18    28    29   ar
    19    29    30   ar
    20    30    31   ar
    21    31    32   ar
    22    21    22    1
    23    22    23    1
    24     5     6    1
    25     6     7    1
    26     9    12    1
    27    12    13   ar
    28    13    14   ar
    29    14    15   ar
    30    15    16   ar
    31     7     2    1
    32    16    12   ar
    33    23    18    1
    34    32    24   ar
    35    32    27   ar
    36    10    11    1
@<TRIPOS>MOLECULE
*****
 32 36 0 0 0
SMALL
GASTEIGER

@<TRIPOS>ATOM
      1 C         139.0142  140.2384  168.9505 C.3     1  UNL1        0.0173
      2 C         142.1321  142.9772  170.6904 C.3     1  UNL1        0.0719
      3 C         142.1405  141.5171  171.0340 C.3     1  UNL1        0.0196
      4 C         141.1012  140.6041  170.4540 C.3     1  UNL1        0.0017
      5 C         140.0535  141.1513  169.5305 C.3     1  UNL1        0.0015
      6 C         140.0451  142.6114  169.1869 C.3     1  UNL1        0.0017
      7 C         141.0844  143.5244  169.7669 C.3     1  UNL1        0.0196
      8 O         144.9362  142.9264  169.6251 O.2     1  UNL1       -0.2668
      9 C         144.5734  143.8647  170.7377 C.2     1  UNL1        0.2805
     10 N         143.1714  143.8902  171.2703 N.am    1  UNL1       -0.3000
     11 H         142.9333  144.5061  172.0006 H       1  UNL1        0.1498
     12 C         145.6126  144.7778  171.3177 C.ar    1  UNL1        0.1985
     13 C         147.0415  144.4201  171.6009 C.ar    1  UNL1        0.0454
     14 C         147.7173  145.6301  172.1745 C.ar    1  UNL1        0.0440
     15 C         146.7062  146.7357  172.2459 C.ar    1  UNL1        0.1798
     16 O         145.4053  146.2089  171.7163 O.2     1  UNL1       -0.4458
     17 C         139.2421  139.5952  167.6147 C.3     1  UNL1        0.0722
     18 N         140.1294  140.2597  166.6041 N.3     1  UNL1       -0.2698
     19 C         141.5899  139.9218  166.5510 C.3     1  UNL1        0.0939
     20 C         142.4771  140.5863  165.5403 C.3     1  UNL1        0.1095
     21 N         141.9038  141.5886  164.5827 N.pl3   1  UNL1       -0.2899
     22 C         140.4434  141.9263  164.6359 C.3     1  UNL1        0.1095
     23 C         139.5561  141.2619  165.6466 C.3     1  UNL1        0.0939
     24 C         142.7910  142.2530  163.5721 C.ar    1  UNL1        0.1400
     25 N         143.6530  143.4570  163.8117 N.ar    1  UNL1       -0.1943
     26 S         144.3667  143.7781  162.5321 S.2     1  UNL1        0.0144
     27 C         143.9459  142.7726  161.5016 C.ar    1  UNL1        0.0502
     28 C         144.3236  142.5935  160.0611 C.ar    1  UNL1        0.0080
     29 C         143.7275  141.4719  159.2633 C.ar    1  UNL1        0.0006
     30 C         142.7537  140.5293  159.9061 C.ar    1  UNL1        0.0001
     31 C         142.3759  140.7083  161.3466 C.ar    1  UNL1        0.0033
     32 C         142.9720  141.8300  162.1444 C.ar    1  UNL1        0.0396
@<TRIPOS>BOND
     1     8     9    2
     2     9    10   am
     3     2    10    1
     4     2     3    1
     5     3     4    1
     6     4     5    1
     7     5     1    1
     8     1    17    1
     9    17    18    1
    10    18    19    1
    11    19    20    1
    12    20    21    1
    13    21    24    1
    14    24    25   ar
    15    25    26   ar
    16    26    27   ar
    17    27    28   ar
    18    28    29   ar
    19    29    30   ar
    20    30    31   ar
    21    31    32   ar
    22    21    22    1
    23    22    23    1
    24     5     6    1
    25     6     7    1
    26     9    12    1
    27    12    13   ar
    28    13    14   ar
    29    14    15   ar
    30    15    16   ar
    31     7     2    1
    32    16    12   ar
    33    23    18    1
    34    32    24   ar
    35    32    27   ar
    36    10    11    1
@<TRIPOS>MOLECULE
*****
 32 36 0 0 0
SMALL
GASTEIGER

@<TRIPOS>ATOM
      1 C         142.4862  136.7253  154.8311 C.3     1  UNL1        0.0173
      2 C         142.9875  132.7446  156.8689 C.3     1  UNL1        0.0719
      3 C         141.9196  132.9268  155.8315 C.3     1  UNL1        0.0196
      4 C         141.7525  134.2537  155.1522 C.3     1  UNL1        0.0017
      5 C         142.6533  135.3983  155.5104 C.3     1  UNL1        0.0015
      6 C         143.7212  135.2161  156.5478 C.3     1  UNL1        0.0017
      7 C         143.8884  133.8892  157.2271 C.3     1  UNL1        0.0196
      8 O         145.0330  130.7928  155.8655 O.2     1  UNL1       -0.2668
      9 C         144.1774  130.4418  157.0465 C.2     1  UNL1        0.2805
     10 N         143.1547  131.4177  157.5482 N.am    1  UNL1       -0.3000
     11 H         142.5931  131.1874  158.3233 H       1  UNL1        0.1498
     12 C         144.3444  129.1149  157.7258 C.ar    1  UNL1        0.1985
     13 C         144.2090  128.8542  159.1967 C.ar    1  UNL1        0.0454
     14 C         144.4571  127.3940  159.4334 C.ar    1  UNL1        0.0440
     15 C         144.7460  126.7521  158.1089 C.ar    1  UNL1        0.1798
     16 O         144.6764  127.8158  157.0534 O.2     1  UNL1       -0.4458
     17 C         142.6973  137.9944  155.6023 C.3     1  UNL1        0.0722
     18 N         141.9224  138.2441  156.8622 N.3     1  UNL1       -0.2698
     19 C         142.6261  138.7446  158.0887 C.3     1  UNL1        0.0939
     20 C         141.8513  138.9943  159.3486 C.3     1  UNL1        0.1095
     21 N         140.3727  138.7434  159.3820 N.pl3   1  UNL1       -0.2899
     22 C         139.6691  138.2429  158.1555 C.3     1  UNL1        0.1095
     23 C         140.4439  137.9932  156.8956 C.3     1  UNL1        0.0939
     24 C         139.5978  138.9931  160.6419 C.ar    1  UNL1        0.1400
     25 N         138.3774  139.8556  160.7701 N.ar    1  UNL1       -0.1943
     26 S         137.9328  139.8196  162.2022 S.2     1  UNL1        0.0144
     27 C         138.8784  138.9349  162.9591 C.ar    1  UNL1        0.0502
     28 C         138.9354  138.5284  164.4018 C.ar    1  UNL1        0.0080
     29 C         140.0214  137.6110  164.8802 C.ar    1  UNL1        0.0006
     30 C         141.0505  137.1002  163.9158 C.ar    1  UNL1        0.0001
     31 C         140.9936  137.5067  162.4731 C.ar    1  UNL1        0.0033
     32 C         139.9075  138.4240  161.9948 C.ar    1  UNL1        0.0396
@<TRIPOS>BOND
     1     8     9    2
     2     9    10   am
     3     2    10    1
     4     2     3    1
     5     3     4    1
     6     4     5    1
     7     5     1    1
     8     1    17    1
     9    17    18    1
    10    18    19    1
    11    19    20    1
    12    20    21    1
    13    21    24    1
    14    24    25   ar
    15    25    26   ar
    16    26    27   ar
    17    27    28   ar
    18    28    29   ar
    19    29    30   ar
    20    30    31   ar
    21    31    32   ar
    22    21    22    1
    23    22    23    1
    24     5     6    1
    25     6     7    1
    26     9    12    1
    27    12    13   ar
    28    13    14   ar
    29    14    15   ar
    30    15    16   ar
    31     7     2    1
    32    16    12   ar
    33    23    18    1
    34    32    24   ar
    35    32    27   ar
    36    10    11    1
@<TRIPOS>MOLECULE
*****
 32 36 0 0 0
SMALL
GASTEIGER

@<TRIPOS>ATOM
      1 C         139.9652  141.3809  166.5688 C.3     1  UNL1        0.0173
      2 C         142.2821  139.0815  169.6662 C.3     1  UNL1        0.0719
      3 C         142.8709  139.3097  168.3057 C.3     1  UNL1        0.0196
      4 C         142.0986  140.0761  167.2731 C.3     1  UNL1        0.0017
      5 C         140.7375  140.6144  167.6013 C.3     1  UNL1        0.0015
      6 C         140.1487  140.3862  168.9618 C.3     1  UNL1        0.0017
      7 C         140.9210  139.6197  169.9944 C.3     1  UNL1        0.0196
      8 O         144.1182  136.8630  168.8253 O.2     1  UNL1       -0.2668
      9 C         143.9724  137.2058  170.2783 C.2     1  UNL1        0.2805
     10 N         143.0544  138.3150  170.6988 N.am    1  UNL1       -0.3000
     11 H         142.9587  138.5400  171.6524 H       1  UNL1        0.1498
     12 C         144.7447  136.4394  171.3109 C.ar    1  UNL1        0.1985
     13 C         145.7573  137.0107  172.2584 C.ar    1  UNL1        0.0454
     14 C         146.2783  135.8914  173.1103 C.ar    1  UNL1        0.0440
     15 C         145.5877  134.6283  172.6894 C.ar    1  UNL1        0.1798
     16 O         144.6397  134.9669  171.5772 O.2     1  UNL1       -0.4458
     17 C         140.3992  142.7632  166.1808 C.3     1  UNL1        0.0722
     18 N         140.4735  143.1473  164.7327 N.3     1  UNL1       -0.2698
     19 C         140.7556  142.1032  163.6933 C.3     1  UNL1        0.0939
     20 C         140.8299  142.4873  162.2453 C.3     1  UNL1        0.1095
     21 N         140.6220  143.9156  161.8365 N.pl3   1  UNL1       -0.2899
     22 C         140.3399  144.9596  162.8759 C.3     1  UNL1        0.1095
     23 C         140.2656  144.5755  164.3239 C.3     1  UNL1        0.0939
     24 C         140.6963  144.2997  160.3884 C.ar    1  UNL1        0.1400
     25 N         141.6335  145.3065  159.7902 N.ar    1  UNL1       -0.1943
     26 S         141.3628  145.3734  158.3164 S.2     1  UNL1        0.0144
     27 C         140.2582  144.4079  158.0037 C.ar    1  UNL1        0.0502
     28 C         139.5743  144.0473  156.7183 C.ar    1  UNL1        0.0080
     29 C         138.4785  143.0231  156.7135 C.ar    1  UNL1        0.0006
     30 C         138.0666  142.3594  157.9941 C.ar    1  UNL1        0.0001
     31 C         138.7505  142.7200  159.2795 C.ar    1  UNL1        0.0033
     32 C         139.8463  143.7443  159.2843 C.ar    1  UNL1        0.0396
@<TRIPOS>BOND
     1     8     9    2
     2     9    10   am
     3     2    10    1
     4     2     3    1
     5     3     4    1
     6     4     5    1
     7     5     1    1
     8     1    17    1
     9    17    18    1
    10    18    19    1
    11    19    20    1
    12    20    21    1
    13    21    24    1
    14    24    25   ar
    15    25    26   ar
    16    26    27   ar
    17    27    28   ar
    18    28    29   ar
    19    29    30   ar
    20    30    31   ar
    21    31    32   ar
    22    21    22    1
    23    22    23    1
    24     5     6    1
    25     6     7    1
    26     9    12    1
    27    12    13   ar
    28    13    14   ar
    29    14    15   ar
    30    15    16   ar
    31     7     2    1
    32    16    12   ar
    33    23    18    1
    34    32    24   ar
    35    32    27   ar
    36    10    11    1
@<TRIPOS>MOLECULE
*****
 32 36 0 0 0
SMALL
GASTEIGER

@<TRIPOS>ATOM
      1 C         138.1387  142.3282  160.5801 C.3     1  UNL1        0.0173
      2 C         139.5421  142.9333  164.8126 C.3     1  UNL1        0.0719
      3 C         138.0740  142.8812  164.5095 C.3     1  UNL1        0.0196
      4 C         137.6061  142.6795  163.0986 C.3     1  UNL1        0.0017
      5 C         138.6065  142.5299  161.9910 C.3     1  UNL1        0.0015
      6 C         140.0746  142.5820  162.2942 C.3     1  UNL1        0.0017
      7 C         140.5424  142.7837  163.7050 C.3     1  UNL1        0.0196
      8 O         140.2657  140.5650  166.5062 O.2     1  UNL1       -0.2668
      9 C         140.3717  141.9509  167.0702 C.2     1  UNL1        0.2805
     10 N         140.0099  143.1350  166.2235 N.am    1  UNL1       -0.3000
     11 H         140.0795  144.0446  166.5937 H       1  UNL1        0.1498
     12 C         140.8395  142.1527  168.4811 C.ar    1  UNL1        0.1985
     13 C         140.0350  141.8998  169.7214 C.ar    1  UNL1        0.0454
     14 C         140.8923  142.2337  170.9061 C.ar    1  UNL1        0.0440
     15 C         142.2268  142.6929  170.3980 C.ar    1  UNL1        0.1798
     16 O         142.1941  142.6428  168.8991 O.2     1  UNL1       -0.4458
     17 C         139.1391  142.1837  159.4718 C.3     1  UNL1        0.0722
     18 N         139.3157  143.2880  158.4722 N.3     1  UNL1       -0.2698
     19 C         140.1356  144.4939  158.8238 C.3     1  UNL1        0.0939
     20 C         140.3122  145.5982  157.8242 C.3     1  UNL1        0.1095
     21 N         139.6689  145.4967  156.4728 N.pl3   1  UNL1       -0.2899
     22 C         138.8491  144.2908  156.1213 C.3     1  UNL1        0.1095
     23 C         138.6725  143.1864  157.1209 C.3     1  UNL1        0.0939
     24 C         139.8455  146.6010  155.4732 C.ar    1  UNL1        0.1400
     25 N         140.5358  146.4871  154.1463 N.ar    1  UNL1       -0.1943
     26 S         140.4797  147.8288  153.4781 S.2     1  UNL1        0.0144
     27 C         139.7548  148.7719  154.3918 C.ar    1  UNL1        0.0502
     28 C         139.4009  150.2236  154.2604 C.ar    1  UNL1        0.0080
     29 C         138.6551  150.9164  155.3621 C.ar    1  UNL1        0.0006
     30 C         138.2631  150.1576  156.5951 C.ar    1  UNL1        0.0001
     31 C         138.6170  148.7059  156.7266 C.ar    1  UNL1        0.0033
     32 C         139.3628  148.0131  155.6249 C.ar    1  UNL1        0.0396
@<TRIPOS>BOND
     1     8     9    2
     2     9    10   am
     3     2    10    1
     4     2     3    1
     5     3     4    1
     6     4     5    1
     7     5     1    1
     8     1    17    1
     9    17    18    1
    10    18    19    1
    11    19    20    1
    12    20    21    1
    13    21    24    1
    14    24    25   ar
    15    25    26   ar
    16    26    27   ar
    17    27    28   ar
    18    28    29   ar
    19    29    30   ar
    20    30    31   ar
    21    31    32   ar
    22    21    22    1
    23    22    23    1
    24     5     6    1
    25     6     7    1
    26     9    12    1
    27    12    13   ar
    28    13    14   ar
    29    14    15   ar
    30    15    16   ar
    31     7     2    1
    32    16    12   ar
    33    23    18    1
    34    32    24   ar
    35    32    27   ar
    36    10    11    1
@<TRIPOS>MOLECULE
*****
 32 36 0 0 0
SMALL
GASTEIGER

@<TRIPOS>ATOM
      1 C         142.9617  137.8964  161.4123 C.3     1  UNL1        0.0173
      2 C         139.7125  139.0020  158.5020 C.3     1  UNL1        0.0719
      3 C         141.1383  138.9288  158.0420 C.3     1  UNL1        0.0196
      4 C         142.2214  138.5603  159.0121 C.3     1  UNL1        0.0017
      5 C         141.8786  138.2649  160.4422 C.3     1  UNL1        0.0015
      6 C         140.4528  138.3381  160.9022 C.3     1  UNL1        0.0017
      7 C         139.3697  138.7066  159.9321 C.3     1  UNL1        0.0196
      8 O         138.3568  141.6701  158.7097 O.2     1  UNL1       -0.2668
      9 C         137.9516  140.7046  157.6358 C.2     1  UNL1        0.2805
     10 N         138.6294  139.3705  157.5319 N.am    1  UNL1       -0.3000
     11 H         138.3634  138.7368  156.8270 H       1  UNL1        0.1498
     12 C         136.8685  141.0730  156.6656 C.ar    1  UNL1        0.1985
     13 C         136.8526  142.2833  155.7798 C.ar    1  UNL1        0.0454
     14 C         135.5854  142.2541  154.9777 C.ar    1  UNL1        0.0440
     15 C         134.8181  141.0257  155.3677 C.ar    1  UNL1        0.1798
     16 O         135.6112  140.2957  156.4110 O.2     1  UNL1       -0.4458
     17 C         143.7110  138.9706  162.1434 C.3     1  UNL1        0.0722
     18 N         143.4154  139.2403  163.5890 N.3     1  UNL1       -0.2698
     19 C         144.0079  140.4415  164.2643 C.3     1  UNL1        0.0939
     20 C         143.7123  140.7112  165.7100 C.3     1  UNL1        0.1095
     21 N         142.8241  139.7795  166.4804 N.pl3   1  UNL1       -0.2899
     22 C         142.2317  138.5784  165.8051 C.3     1  UNL1        0.1095
     23 C         142.5273  138.3087  164.3594 C.3     1  UNL1        0.0939
     24 C         142.5285  140.0492  167.9260 C.ar    1  UNL1        0.1400
     25 N         143.0041  139.2320  169.0905 N.ar    1  UNL1       -0.1943
     26 S         142.4749  139.8612  170.3452 S.2     1  UNL1        0.0144
     27 C         141.6723  141.0672  169.9561 C.ar    1  UNL1        0.0502
     28 C         140.9156  142.0746  170.7700 C.ar    1  UNL1        0.0080
     29 C         140.1921  143.1982  170.0889 C.ar    1  UNL1        0.0006
     30 C         140.2252  143.3144  168.5937 C.ar    1  UNL1        0.0001
     31 C         140.9819  142.3070  167.7798 C.ar    1  UNL1        0.0033
     32 C         141.7054  141.1834  168.4610 C.ar    1  UNL1        0.0396
@<TRIPOS>BOND
     1     8     9    2
     2     9    10   am
     3     2    10    1
     4     2     3    1
     5     3     4    1
     6     4     5    1
     7     5     1    1
     8     1    17    1
     9    17    18    1
    10    18    19    1
    11    19    20    1
    12    20    21    1
    13    21    24    1
    14    24    25   ar
    15    25    26   ar
    16    26    27   ar
    17    27    28   ar
    18    28    29   ar
    19    29    30   ar
    20    30    31   ar
    21    31    32   ar
    22    21    22    1
    23    22    23    1
    24     5     6    1
    25     6     7    1
    26     9    12    1
    27    12    13   ar
    28    13    14   ar
    29    14    15   ar
    30    15    16   ar
    31     7     2    1
    32    16    12   ar
    33    23    18    1
    34    32    24   ar
    35    32    27   ar
    36    10    11    1
