@<TRIPOS>MOLECULE
*****
 36 39 0 0 0
SMALL
GASTEIGER

@<TRIPOS>ATOM
      1 C         138.2282  142.3412  163.4902 C.3     1  UNL1        0.0544
      2 C         137.6188  143.7076  163.3824 C.3     1  UNL1        0.0162
      3 C         138.7287  144.6951  163.1752 C.3     1  UNL1        0.0100
      4 C         140.0241  143.9390  163.1550 C.3     1  UNL1        0.0704
      5 C         139.7147  142.4842  163.3497 C.3     1  UNL1        0.0243
      6 C         141.4463  143.4664  163.0914 C.2     1  UNL1        0.2248
      7 O         142.2025  143.1911  164.3572 O.2     1  UNL1       -0.2749
      8 N         142.1122  143.2690  161.7619 N.am    1  UNL1       -0.2760
      9 C         141.3560  143.5443  160.4960 C.3     1  UNL1        0.1149
     10 C         142.0219  143.3469  159.1666 C.3     1  UNL1        0.1137
     11 N         143.4441  142.8744  159.1028 N.pl3   1  UNL1       -0.2897
     12 C         144.2004  142.5991  160.3687 C.3     1  UNL1        0.1137
     13 C         143.5344  142.7964  161.6982 C.3     1  UNL1        0.1149
     14 C         144.1100  142.6770  157.7734 C.ar    1  UNL1        0.1317
     15 C         145.6008  142.5310  157.6956 C.ar    1  UNL1        0.0382
     16 C         146.2667  142.3337  156.3661 C.ar    1  UNL1        0.0757
     17 C         145.4418  142.2824  155.1143 C.ar    1  UNL1        0.0246
     18 C         143.9510  142.4284  155.1921 C.ar    1  UNL1        0.1002
     19 N         143.2851  142.6257  156.5215 N.ar    1  UNL1       -0.2292
     20 C         147.7576  142.1876  156.2883 C.3     1  UNL1        0.4187
     21 F         149.2485  142.0417  156.2106 F       1  UNL1       -0.1659
     22 F         147.8939  142.8732  157.6155 F       1  UNL1       -0.1659
     23 F         147.6213  141.5021  154.9611 F       1  UNL1       -0.1659
     24 C         140.6308  145.2950  162.9470 C.3     1  UNL1        0.0082
     25 C         140.0074  146.2549  161.9775 C.3     1  UNL1        0.0005
     26 C         141.8609  145.6911  163.7086 C.3     1  UNL1        0.0005
     27 N         137.4821  141.0572  163.7015 N.3     1  UNL1       -0.2995
     28 H         137.2230  141.0260  164.6875 H       1  UNL1        0.1232
     29 C         138.7115  138.9083  164.4895 C.3     1  UNL1        0.0441
     30 C         139.3691  137.5979  164.1730 C.3     1  UNL1        0.1434
     31 O         139.4551  137.1259  162.7518 O.3     1  UNL1       -0.3537
     32 C         138.8834  137.9643  161.6471 C.3     1  UNL1        0.1435
     33 C         138.2257  139.2747  161.9637 C.3     1  UNL1        0.0478
     34 C         138.1398  139.7467  163.3849 C.3     1  UNL1        0.0589
     35 C         137.7452  138.6599  166.8884 C.3     1  UNL1        0.0001
     36 C         138.6255  139.3804  165.9107 C.3     1  UNL1        0.0038
@<TRIPOS>BOND
     1    35    36    1
     2    36    29    1
     3    29    30    1
     4    30    31    1
     5    31    32    1
     6    32    33    1
     7    33    34    1
     8    34    27    1
     9     1    27    1
    10     1     2    1
    11     2     3    1
    12     3     4    1
    13     4     6    1
    14     6     7    2
    15     6     8   am
    16     8     9    1
    17     9    10    1
    18    10    11    1
    19    11    14    1
    20    14    15   ar
    21    15    16   ar
    22    16    20    1
    23    20    21    1
    24    20    22    1
    25    20    23    1
    26    16    17   ar
    27    17    18   ar
    28    18    19   ar
    29    11    12    1
    30    12    13    1
    31     4    24    1
    32    24    25    1
    33    24    26    1
    34     4     5    1
    35    34    29    1
    36     5     1    1
    37    13     8    1
    38    19    14   ar
    39    27    28    1
@<TRIPOS>MOLECULE
*****
 36 39 0 0 0
SMALL
GASTEIGER

@<TRIPOS>ATOM
      1 C         139.9358  141.0127  160.4976 C.3     1  UNL1        0.0544
      2 C         139.0073  141.9842  159.8309 C.3     1  UNL1        0.0162
      3 C         139.5626  143.3640  160.0252 C.3     1  UNL1        0.0100
      4 C         140.8343  143.2453  160.8119 C.3     1  UNL1        0.0704
      5 C         141.0649  141.7922  161.1038 C.3     1  UNL1        0.0243
      6 C         142.1136  143.4389  161.5707 C.2     1  UNL1        0.2248
      7 O         143.3353  143.9468  160.8640 O.2     1  UNL1       -0.2749
      8 N         142.1712  143.1247  163.0363 N.am    1  UNL1       -0.2760
      9 C         140.9495  142.6168  163.7431 C.3     1  UNL1        0.1149
     10 C         141.0071  142.3025  165.2086 C.3     1  UNL1        0.1137
     11 N         142.2864  142.4961  165.9675 N.pl3   1  UNL1       -0.2897
     12 C         143.5082  143.0040  165.2607 C.3     1  UNL1        0.1137
     13 C         143.4505  143.3183  163.7952 C.3     1  UNL1        0.1149
     14 C         142.3440  142.1818  167.4330 C.ar    1  UNL1        0.1317
     15 C         141.2104  141.4499  168.0883 C.ar    1  UNL1        0.0382
     16 C         141.2681  141.1357  169.5538 C.ar    1  UNL1        0.0757
     17 C         142.4593  141.5533  170.3642 C.ar    1  UNL1        0.0246
     18 C         143.5928  142.2851  169.7089 C.ar    1  UNL1        0.1002
     19 N         143.5352  142.5994  168.2434 N.ar    1  UNL1       -0.2292
     20 C         140.1345  140.4038  170.2091 C.3     1  UNL1        0.4187
     21 F         139.0008  139.6720  170.8644 F       1  UNL1       -0.1659
     22 F         139.2493  141.5987  170.0124 F       1  UNL1       -0.1659
     23 F         141.0196  139.2089  170.4058 F       1  UNL1       -0.1659
     24 C         140.8712  144.7390  160.6786 C.3     1  UNL1        0.0082
     25 C         140.5599  145.6056  161.8627 C.3     1  UNL1        0.0005
     26 C         141.2194  145.3660  159.3612 C.3     1  UNL1        0.0005
     27 N         139.7651  139.5234  160.5489 N.3     1  UNL1       -0.2995
     28 H         138.8372  139.3204  160.1771 H       1  UNL1        0.1232
     29 C         138.8110  138.9744  162.9023 C.3     1  UNL1        0.0441
     30 C         138.9203  138.2517  164.2121 C.3     1  UNL1        0.1434
     31 O         140.0930  137.3552  164.4784 O.3     1  UNL1       -0.3537
     32 C         141.1564  137.1814  163.4349 C.3     1  UNL1        0.1435
     33 C         141.0471  137.9041  162.1251 C.3     1  UNL1        0.0478
     34 C         139.8744  138.8007  161.8588 C.3     1  UNL1        0.0589
     35 C         137.5753  141.2307  163.2661 C.3     1  UNL1        0.0001
     36 C         137.6382  139.8710  162.6360 C.3     1  UNL1        0.0038
@<TRIPOS>BOND
     1    35    36    1
     2    36    29    1
     3    29    30    1
     4    30    31    1
     5    31    32    1
     6    32    33    1
     7    33    34    1
     8    34    27    1
     9     1    27    1
    10     1     2    1
    11     2     3    1
    12     3     4    1
    13     4     6    1
    14     6     7    2
    15     6     8   am
    16     8     9    1
    17     9    10    1
    18    10    11    1
    19    11    14    1
    20    14    15   ar
    21    15    16   ar
    22    16    20    1
    23    20    21    1
    24    20    22    1
    25    20    23    1
    26    16    17   ar
    27    17    18   ar
    28    18    19   ar
    29    11    12    1
    30    12    13    1
    31     4    24    1
    32    24    25    1
    33    24    26    1
    34     4     5    1
    35    34    29    1
    36     5     1    1
    37    13     8    1
    38    19    14   ar
    39    27    28    1
@<TRIPOS>MOLECULE
*****
 36 39 0 0 0
SMALL
GASTEIGER

@<TRIPOS>ATOM
      1 C         143.3034  140.8811  160.8280 C.3     1  UNL1        0.0544
      2 C         143.4052  139.6291  160.0080 C.3     1  UNL1        0.0162
      3 C         142.0539  138.9784  159.9859 C.3     1  UNL1        0.0100
      4 C         141.1170  139.8282  160.7922 C.3     1  UNL1        0.0704
      5 C         141.8892  141.0041  161.3126 C.3     1  UNL1        0.0243
      6 C         139.9684  140.4597  161.5216 C.2     1  UNL1        0.2248
      7 O         138.7752  140.9529  160.7580 O.2     1  UNL1       -0.2749
      8 N         140.0130  140.5980  163.0146 N.am    1  UNL1       -0.2760
      9 C         141.2062  140.1048  163.7781 C.3     1  UNL1        0.1149
     10 C         141.2508  140.2431  165.2710 C.3     1  UNL1        0.1137
     11 N         140.1023  140.8746  166.0005 N.pl3   1  UNL1       -0.2897
     12 C         138.9090  141.3679  165.2369 C.3     1  UNL1        0.1137
     13 C         138.8644  141.2296  163.7439 C.3     1  UNL1        0.1149
     14 C         140.1469  141.0129  167.4933 C.ar    1  UNL1        0.1317
     15 C         141.1491  141.9281  168.1322 C.ar    1  UNL1        0.0382
     16 C         141.1937  142.0663  169.6251 C.ar    1  UNL1        0.0757
     17 C         140.2361  141.2895  170.4792 C.ar    1  UNL1        0.0246
     18 C         139.2339  140.3744  169.8404 C.ar    1  UNL1        0.1002
     19 N         139.1893  140.2361  168.3475 N.ar    1  UNL1       -0.2292
     20 C         142.1959  142.9815  170.2640 C.3     1  UNL1        0.4187
     21 F         143.1980  143.8967  170.9028 F       1  UNL1       -0.1659
     22 F         141.2615  144.1391  170.0715 F       1  UNL1       -0.1659
     23 F         143.1303  141.8240  170.4565 F       1  UNL1       -0.1659
     24 C         140.1045  138.7843  160.4243 C.3     1  UNL1        0.0082
     25 C         139.7084  138.5963  158.9899 C.3     1  UNL1        0.0005
     26 C         139.4882  137.9284  161.4910 C.3     1  UNL1        0.0005
     27 N         144.4198  141.8414  161.1132 N.3     1  UNL1       -0.2995
     28 H         145.2687  141.2848  161.2131 H       1  UNL1        0.1232
     29 C         144.9309  142.2946  163.6199 C.3     1  UNL1        0.0441
     30 C         144.8590  143.1937  164.8183 C.3     1  UNL1        0.1434
     31 O         144.2042  144.5388  164.7087 O.3     1  UNL1       -0.3537
     32 C         143.6212  144.9847  163.4005 C.3     1  UNL1        0.1435
     33 C         143.6931  144.0856  162.2021 C.3     1  UNL1        0.0478
     34 C         144.3480  142.7405  162.3117 C.3     1  UNL1        0.0589
     35 C         144.8182  139.7843  164.2800 C.3     1  UNL1        0.0001
     36 C         145.5857  140.9496  163.7295 C.3     1  UNL1        0.0038
@<TRIPOS>BOND
     1    35    36    1
     2    36    29    1
     3    29    30    1
     4    30    31    1
     5    31    32    1
     6    32    33    1
     7    33    34    1
     8    34    27    1
     9     1    27    1
    10     1     2    1
    11     2     3    1
    12     3     4    1
    13     4     6    1
    14     6     7    2
    15     6     8   am
    16     8     9    1
    17     9    10    1
    18    10    11    1
    19    11    14    1
    20    14    15   ar
    21    15    16   ar
    22    16    20    1
    23    20    21    1
    24    20    22    1
    25    20    23    1
    26    16    17   ar
    27    17    18   ar
    28    18    19   ar
    29    11    12    1
    30    12    13    1
    31     4    24    1
    32    24    25    1
    33    24    26    1
    34     4     5    1
    35    34    29    1
    36     5     1    1
    37    13     8    1
    38    19    14   ar
    39    27    28    1
@<TRIPOS>MOLECULE
*****
 36 39 0 0 0
SMALL
GASTEIGER

@<TRIPOS>ATOM
      1 C         141.3401  141.7634  164.6510 C.3     1  UNL1        0.0544
      2 C         141.6813  140.8847  165.8179 C.3     1  UNL1        0.0162
      3 C         141.1045  139.5246  165.5584 C.3     1  UNL1        0.0100
      4 C         140.4067  139.5627  164.2310 C.3     1  UNL1        0.0704
      5 C         140.5523  140.9463  163.6703 C.3     1  UNL1        0.0243
      6 C         139.6452  139.3000  162.9657 C.2     1  UNL1        0.2248
      7 O         138.1459  139.3419  162.9703 O.2     1  UNL1       -0.2749
      8 N         140.3832  138.9954  161.6958 N.am    1  UNL1       -0.2760
      9 C         141.8825  138.9535  161.6912 C.3     1  UNL1        0.1149
     10 C         142.6204  138.6489  160.4213 C.3     1  UNL1        0.1137
     11 N         141.8591  138.3862  159.1559 N.pl3   1  UNL1       -0.2897
     12 C         140.3596  138.4281  159.1605 C.3     1  UNL1        0.1137
     13 C         139.6217  138.7327  160.4304 C.3     1  UNL1        0.1149
     14 C         142.5970  138.0816  157.8861 C.ar    1  UNL1        0.1317
     15 C         142.7651  136.6597  157.4389 C.ar    1  UNL1        0.0382
     16 C         143.5030  136.3552  156.1690 C.ar    1  UNL1        0.0757
     17 C         144.0728  137.4725  155.3462 C.ar    1  UNL1        0.0246
     18 C         143.9047  138.8943  155.7934 C.ar    1  UNL1        0.1002
     19 N         143.1668  139.1989  157.0632 N.ar    1  UNL1       -0.2292
     20 C         143.6711  134.9333  155.7218 C.3     1  UNL1        0.4187
     21 F         143.8392  133.5114  155.2745 F       1  UNL1       -0.1659
     22 F         143.2827  135.3260  154.3271 F       1  UNL1       -0.1659
     23 F         144.0595  134.5405  157.1163 F       1  UNL1       -0.1659
     24 C         140.1019  138.1241  164.5272 C.3     1  UNL1        0.0082
     25 C         138.7992  137.7504  165.1701 C.3     1  UNL1        0.0005
     26 C         141.0998  137.0592  164.1805 C.3     1  UNL1        0.0005
     27 N         141.7199  143.2058  164.4927 N.3     1  UNL1       -0.2995
     28 H         141.3736  143.6938  165.3187 H       1  UNL1        0.1232
     29 C         139.9864  144.7955  163.3890 C.3     1  UNL1        0.0441
     30 C         139.5092  145.5701  162.1965 C.3     1  UNL1        0.1434
     31 O         140.2881  145.5298  160.9152 O.3     1  UNL1       -0.3537
     32 C         141.5442  144.7149  160.8264 C.3     1  UNL1        0.1435
     33 C         142.0214  143.9402  162.0189 C.3     1  UNL1        0.0478
     34 C         141.2426  143.9805  163.3002 C.3     1  UNL1        0.0589
     35 C         137.8987  144.1107  164.7754 C.3     1  UNL1        0.0001
     36 C         139.2075  144.8358  164.6702 C.3     1  UNL1        0.0038
@<TRIPOS>BOND
     1    35    36    1
     2    36    29    1
     3    29    30    1
     4    30    31    1
     5    31    32    1
     6    32    33    1
     7    33    34    1
     8    34    27    1
     9     1    27    1
    10     1     2    1
    11     2     3    1
    12     3     4    1
    13     4     6    1
    14     6     7    2
    15     6     8   am
    16     8     9    1
    17     9    10    1
    18    10    11    1
    19    11    14    1
    20    14    15   ar
    21    15    16   ar
    22    16    20    1
    23    20    21    1
    24    20    22    1
    25    20    23    1
    26    16    17   ar
    27    17    18   ar
    28    18    19   ar
    29    11    12    1
    30    12    13    1
    31     4    24    1
    32    24    25    1
    33    24    26    1
    34     4     5    1
    35    34    29    1
    36     5     1    1
    37    13     8    1
    38    19    14   ar
    39    27    28    1
@<TRIPOS>MOLECULE
*****
 36 39 0 0 0
SMALL
GASTEIGER

@<TRIPOS>ATOM
      1 C         144.2897  141.9488  160.2837 C.3     1  UNL1        0.0544
      2 C         143.7710  142.4077  158.9531 C.3     1  UNL1        0.0162
      3 C         142.8710  141.3366  158.4119 C.3     1  UNL1        0.0100
      4 C         142.8335  140.2158  159.4082 C.3     1  UNL1        0.0704
      5 C         143.7102  140.5942  160.5649 C.3     1  UNL1        0.0243
      6 C         142.6025  138.9610  160.1970 C.2     1  UNL1        0.2248
      7 O         143.0799  137.6423  159.6652 O.2     1  UNL1       -0.2749
      8 N         141.8940  139.0251  161.5176 N.am    1  UNL1       -0.2760
      9 C         141.4166  140.3439  162.0494 C.3     1  UNL1        0.1149
     10 C         140.7082  140.4079  163.3700 C.3     1  UNL1        0.1137
     11 N         140.4772  139.1532  164.1589 N.pl3   1  UNL1       -0.2897
     12 C         140.9546  137.8344  163.6270 C.3     1  UNL1        0.1137
     13 C         141.6630  137.7703  162.3064 C.3     1  UNL1        0.1149
     14 C         139.7688  139.2173  165.4794 C.ar    1  UNL1        0.1317
     15 C         140.3950  139.9449  166.6320 C.ar    1  UNL1        0.0382
     16 C         139.6866  140.0089  167.9526 C.ar    1  UNL1        0.0757
     17 C         138.3519  139.3454  168.1206 C.ar    1  UNL1        0.0246
     18 C         137.7256  138.6178  166.9681 C.ar    1  UNL1        0.1002
     19 N         138.4340  138.5538  165.6475 N.ar    1  UNL1       -0.2292
     20 C         140.3128  140.7365  169.1051 C.3     1  UNL1        0.4187
     21 F         140.9391  141.4642  170.2577 F       1  UNL1       -0.1659
     22 F         139.9611  142.0483  168.4682 F       1  UNL1       -0.1659
     23 F         140.6646  139.4249  169.7421 F       1  UNL1       -0.1659
     24 C         141.9084  139.5750  158.4163 C.3     1  UNL1        0.0082
     25 C         142.4521  139.0207  157.1329 C.3     1  UNL1        0.0005
     26 C         140.4395  139.4887  158.7078 C.3     1  UNL1        0.0005
     27 N         145.2238  142.7108  161.1763 N.3     1  UNL1       -0.2995
     28 H         146.0124  142.0943  161.3721 H       1  UNL1        0.1232
     29 C         144.9425  142.4164  163.7423 C.3     1  UNL1        0.0441
     30 C         144.4600  142.9356  165.0642 C.3     1  UNL1        0.1434
     31 O         143.7764  144.2685  165.1422 O.3     1  UNL1       -0.3537
     32 C         143.5752  145.0821  163.8983 C.3     1  UNL1        0.1435
     33 C         144.0576  144.5629  162.5763 C.3     1  UNL1        0.0478
     34 C         144.7413  143.2300  162.4983 C.3     1  UNL1        0.0589
     35 C         144.8726  139.8329  164.0076 C.3     1  UNL1        0.0001
     36 C         145.6261  141.0835  163.6643 C.3     1  UNL1        0.0038
@<TRIPOS>BOND
     1    35    36    1
     2    36    29    1
     3    29    30    1
     4    30    31    1
     5    31    32    1
     6    32    33    1
     7    33    34    1
     8    34    27    1
     9     1    27    1
    10     1     2    1
    11     2     3    1
    12     3     4    1
    13     4     6    1
    14     6     7    2
    15     6     8   am
    16     8     9    1
    17     9    10    1
    18    10    11    1
    19    11    14    1
    20    14    15   ar
    21    15    16   ar
    22    16    20    1
    23    20    21    1
    24    20    22    1
    25    20    23    1
    26    16    17   ar
    27    17    18   ar
    28    18    19   ar
    29    11    12    1
    30    12    13    1
    31     4    24    1
    32    24    25    1
    33    24    26    1
    34     4     5    1
    35    34    29    1
    36     5     1    1
    37    13     8    1
    38    19    14   ar
    39    27    28    1
@<TRIPOS>MOLECULE
*****
 36 39 0 0 0
SMALL
GASTEIGER

@<TRIPOS>ATOM
      1 C         139.8483  142.0235  160.2054 C.3     1  UNL1        0.0544
      2 C         139.8989  140.9728  159.1360 C.3     1  UNL1        0.0162
      3 C         141.3123  140.4807  159.0362 C.3     1  UNL1        0.0100
      4 C         142.1353  141.2274  160.0438 C.3     1  UNL1        0.0704
      5 C         141.2305  142.1809  160.7664 C.3     1  UNL1        0.0243
      6 C         143.1937  141.7997  160.9395 C.2     1  UNL1        0.2248
      7 O         144.3255  142.5902  160.3529 O.2     1  UNL1       -0.2749
      8 N         143.1203  141.5815  162.4217 N.am    1  UNL1       -0.2760
      9 C         141.9885  140.7910  163.0083 C.3     1  UNL1        0.1149
     10 C         141.9151  140.5728  164.4904 C.3     1  UNL1        0.1137
     11 N         142.9734  141.1450  165.3862 N.pl3   1  UNL1       -0.2897
     12 C         144.1053  141.9356  164.7996 C.3     1  UNL1        0.1137
     13 C         144.1787  142.1538  163.3174 C.3     1  UNL1        0.1149
     14 C         142.9000  140.9268  166.8683 C.ar    1  UNL1        0.1317
     15 C         143.1901  142.0591  167.8084 C.ar    1  UNL1        0.0382
     16 C         143.1166  141.8408  169.2907 C.ar    1  UNL1        0.0757
     17 C         142.7531  140.4903  169.8328 C.ar    1  UNL1        0.0246
     18 C         142.4630  139.3580  168.8927 C.ar    1  UNL1        0.1002
     19 N         142.5364  139.5762  167.4106 N.ar    1  UNL1       -0.2292
     20 C         143.4067  142.9731  170.2308 C.3     1  UNL1        0.4187
     21 F         143.6970  144.1054  171.1709 F       1  UNL1       -0.1659
     22 F         144.8717  142.6589  170.1571 F       1  UNL1       -0.1659
     23 F         141.9419  143.2873  170.3045 F       1  UNL1       -0.1659
     24 C         143.2615  140.3935  159.5085 C.3     1  UNL1        0.0082
     25 C         143.8137  139.2644  160.3271 C.3     1  UNL1        0.0005
     26 C         143.8355  140.6889  158.1545 C.3     1  UNL1        0.0005
     27 N         138.6295  142.7835  160.6377 N.3     1  UNL1       -0.2995
     28 H         138.6026  143.6380  160.0815 H       1  UNL1        0.1232
     29 C         137.8586  142.2484  163.0605 C.3     1  UNL1        0.0441
     30 C         137.7008  142.6600  164.4942 C.3     1  UNL1        0.1434
     31 O         138.1562  144.0182  164.9391 O.3     1  UNL1       -0.3537
     32 C         138.7694  144.9648  163.9502 C.3     1  UNL1        0.1435
     33 C         138.9271  144.5532  162.5164 C.3     1  UNL1        0.0478
     34 C         138.4717  143.1950  162.0716 C.3     1  UNL1        0.0589
     35 C         138.3529  139.7300  162.6566 C.3     1  UNL1        0.0001
     36 C         137.4031  140.8902  162.6156 C.3     1  UNL1        0.0038
@<TRIPOS>BOND
     1    35    36    1
     2    36    29    1
     3    29    30    1
     4    30    31    1
     5    31    32    1
     6    32    33    1
     7    33    34    1
     8    34    27    1
     9     1    27    1
    10     1     2    1
    11     2     3    1
    12     3     4    1
    13     4     6    1
    14     6     7    2
    15     6     8   am
    16     8     9    1
    17     9    10    1
    18    10    11    1
    19    11    14    1
    20    14    15   ar
    21    15    16   ar
    22    16    20    1
    23    20    21    1
    24    20    22    1
    25    20    23    1
    26    16    17   ar
    27    17    18   ar
    28    18    19   ar
    29    11    12    1
    30    12    13    1
    31     4    24    1
    32    24    25    1
    33    24    26    1
    34     4     5    1
    35    34    29    1
    36     5     1    1
    37    13     8    1
    38    19    14   ar
    39    27    28    1
@<TRIPOS>MOLECULE
*****
 36 39 0 0 0
SMALL
GASTEIGER

@<TRIPOS>ATOM
      1 C         139.9731  141.4802  160.4726 C.3     1  UNL1        0.0544
      2 C         140.9512  141.6633  159.3502 C.3     1  UNL1        0.0162
      3 C         141.9883  140.5850  159.4586 C.3     1  UNL1        0.0100
      4 C         141.6511  139.7355  160.6480 C.3     1  UNL1        0.0704
      5 C         140.4056  140.2888  161.2747 C.3     1  UNL1        0.0243
      6 C         141.5708  138.7262  161.7547 C.2     1  UNL1        0.2248
      7 O         141.3545  137.2770  161.4339 O.2     1  UNL1       -0.2749
      8 N         141.7067  139.1661  163.1823 N.am    1  UNL1       -0.2760
      9 C         141.9229  140.6154  163.5032 C.3     1  UNL1        0.1149
     10 C         142.0588  141.0553  164.9307 C.3     1  UNL1        0.1137
     11 N         141.9785  140.0461  166.0375 N.pl3   1  UNL1       -0.2897
     12 C         141.7623  138.5968  165.7166 C.3     1  UNL1        0.1137
     13 C         141.6264  138.1569  164.2891 C.3     1  UNL1        0.1149
     14 C         142.1144  140.4861  167.4650 C.ar    1  UNL1        0.1317
     15 C         141.5698  141.8158  167.8951 C.ar    1  UNL1        0.0382
     16 C         141.7057  142.2558  169.3227 C.ar    1  UNL1        0.0757
     17 C         142.3863  141.3659  170.3202 C.ar    1  UNL1        0.0246
     18 C         142.9310  140.0362  169.8900 C.ar    1  UNL1        0.1002
     19 N         142.7951  139.5962  168.4626 N.ar    1  UNL1       -0.2292
     20 C         141.1610  143.5855  169.7528 C.3     1  UNL1        0.4187
     21 F         140.6162  144.9154  170.1829 F       1  UNL1       -0.1659
     22 F         139.8969  143.3137  168.9924 F       1  UNL1       -0.1659
     23 F         142.4251  143.8575  170.5132 F       1  UNL1       -0.1659
     24 C         142.8798  138.9712  160.2527 C.3     1  UNL1        0.0082
     25 C         142.8648  138.1102  159.0245 C.3     1  UNL1        0.0005
     26 C         144.1235  139.0679  161.0857 C.3     1  UNL1        0.0005
     27 N         138.7731  142.3379  160.7451 N.3     1  UNL1       -0.2995
     28 H         138.6686  142.9610  159.9443 H       1  UNL1        0.1232
     29 C         138.0024  142.7257  163.1957 C.3     1  UNL1        0.0441
     30 C         137.9592  143.5870  164.4230 C.3     1  UNL1        0.1434
     31 O         138.6435  144.9218  164.4270 O.3     1  UNL1       -0.3537
     32 C         139.3710  145.3953  163.2037 C.3     1  UNL1        0.1435
     33 C         139.4142  144.5341  161.9764 C.3     1  UNL1        0.0478
     34 C         138.7299  143.1992  161.9725 C.3     1  UNL1        0.0589
     35 C         137.9696  140.2121  163.8520 C.3     1  UNL1        0.0001
     36 C         137.3181  141.3909  163.1918 C.3     1  UNL1        0.0038
@<TRIPOS>BOND
     1    35    36    1
     2    36    29    1
     3    29    30    1
     4    30    31    1
     5    31    32    1
     6    32    33    1
     7    33    34    1
     8    34    27    1
     9     1    27    1
    10     1     2    1
    11     2     3    1
    12     3     4    1
    13     4     6    1
    14     6     7    2
    15     6     8   am
    16     8     9    1
    17     9    10    1
    18    10    11    1
    19    11    14    1
    20    14    15   ar
    21    15    16   ar
    22    16    20    1
    23    20    21    1
    24    20    22    1
    25    20    23    1
    26    16    17   ar
    27    17    18   ar
    28    18    19   ar
    29    11    12    1
    30    12    13    1
    31     4    24    1
    32    24    25    1
    33    24    26    1
    34     4     5    1
    35    34    29    1
    36     5     1    1
    37    13     8    1
    38    19    14   ar
    39    27    28    1
@<TRIPOS>MOLECULE
*****
 36 39 0 0 0
SMALL
GASTEIGER

@<TRIPOS>ATOM
      1 C         142.9488  142.4174  160.3179 C.3     1  UNL1        0.0544
      2 C         144.0505  141.7796  159.5245 C.3     1  UNL1        0.0162
      3 C         143.9398  140.2928  159.6896 C.3     1  UNL1        0.0100
      4 C         142.7697  140.0118  160.5851 C.3     1  UNL1        0.0704
      5 C         142.1572  141.3248  160.9733 C.3     1  UNL1        0.0243
      6 C         141.6800  139.4308  161.4365 C.2     1  UNL1        0.2248
      7 O         140.5532  138.6734  160.7989 O.2     1  UNL1       -0.2749
      8 N         141.7172  139.6071  162.9257 N.am    1  UNL1       -0.2760
      9 C         142.8440  140.3645  163.5633 C.3     1  UNL1        0.1149
     10 C         142.8812  140.5409  165.0524 C.3     1  UNL1        0.1137
     11 N         141.7916  139.9599  165.9040 N.pl3   1  UNL1       -0.2897
     12 C         140.6647  139.2025  165.2663 C.3     1  UNL1        0.1137
     13 C         140.6275  139.0261  163.7772 C.3     1  UNL1        0.1149
     14 C         141.8288  140.1363  167.3930 C.ar    1  UNL1        0.1317
     15 C         140.9931  141.1985  168.0436 C.ar    1  UNL1        0.0382
     16 C         141.0303  141.3749  169.5327 C.ar    1  UNL1        0.0757
     17 C         141.9032  140.4890  170.3713 C.ar    1  UNL1        0.0246
     18 C         142.7389  139.4268  169.7207 C.ar    1  UNL1        0.1002
     19 N         142.7017  139.2504  168.2317 N.ar    1  UNL1       -0.2292
     20 C         140.1946  142.4371  170.1833 C.3     1  UNL1        0.4187
     21 F         139.3587  143.4993  170.8339 F       1  UNL1       -0.1659
     22 F         139.0188  141.5056  170.1937 F       1  UNL1       -0.1659
     23 F         141.3702  143.3685  170.1729 F       1  UNL1       -0.1659
     24 C         143.1543  138.5772  160.3748 C.3     1  UNL1        0.0082
     25 C         142.7757  137.8778  159.1030 C.3     1  UNL1        0.0005
     26 C         143.9177  137.8420  161.4363 C.3     1  UNL1        0.0005
     27 N         142.6849  143.8893  160.4352 N.3     1  UNL1       -0.2995
     28 H         143.5855  144.3373  160.6046 H       1  UNL1        0.1232
     29 C         142.2482  144.7028  162.8637 C.3     1  UNL1        0.0441
     30 C         141.3059  145.2146  163.9126 C.3     1  UNL1        0.1434
     31 O         139.8580  145.4247  163.5818 O.3     1  UNL1       -0.3537
     32 C         139.3524  145.1230  162.2022 C.3     1  UNL1        0.1435
     33 C         140.2947  144.6112  161.1534 C.3     1  UNL1        0.0478
     34 C         141.7426  144.4011  161.4841 C.3     1  UNL1        0.0589
     35 C         144.0937  144.0405  164.5683 C.3     1  UNL1        0.0001
     36 C         143.6961  144.4927  163.1945 C.3     1  UNL1        0.0038
@<TRIPOS>BOND
     1    35    36    1
     2    36    29    1
     3    29    30    1
     4    30    31    1
     5    31    32    1
     6    32    33    1
     7    33    34    1
     8    34    27    1
     9     1    27    1
    10     1     2    1
    11     2     3    1
    12     3     4    1
    13     4     6    1
    14     6     7    2
    15     6     8   am
    16     8     9    1
    17     9    10    1
    18    10    11    1
    19    11    14    1
    20    14    15   ar
    21    15    16   ar
    22    16    20    1
    23    20    21    1
    24    20    22    1
    25    20    23    1
    26    16    17   ar
    27    17    18   ar
    28    18    19   ar
    29    11    12    1
    30    12    13    1
    31     4    24    1
    32    24    25    1
    33    24    26    1
    34     4     5    1
    35    34    29    1
    36     5     1    1
    37    13     8    1
    38    19    14   ar
    39    27    28    1
@<TRIPOS>MOLECULE
*****
 36 39 0 0 0
SMALL
GASTEIGER

@<TRIPOS>ATOM
      1 C         138.9731  140.4995  165.4083 C.3     1  UNL1        0.0544
      2 C         138.9835  139.5536  166.5724 C.3     1  UNL1        0.0162
      3 C         140.4128  139.2399  166.9021 C.3     1  UNL1        0.0100
      4 C         141.2858  139.9920  165.9417 C.3     1  UNL1        0.0704
      5 C         140.3960  140.7705  165.0185 C.3     1  UNL1        0.0243
      6 C         142.3932  140.6083  165.1392 C.2     1  UNL1        0.2248
      7 O         143.3477  141.5653  165.7896 O.2     1  UNL1       -0.2749
      8 N         142.5461  140.2674  163.6865 N.am    1  UNL1       -0.2760
      9 C         141.5916  139.3104  163.0362 C.3     1  UNL1        0.1149
     10 C         141.7445  138.9696  161.5835 C.3     1  UNL1        0.1137
     11 N         142.8518  139.5857  160.7810 N.pl3   1  UNL1       -0.2897
     12 C         143.8064  140.5429  161.4313 C.3     1  UNL1        0.1137
     13 C         143.6535  140.8837  162.8841 C.3     1  UNL1        0.1149
     14 C         143.0047  139.2449  159.3283 C.ar    1  UNL1        0.1317
     15 C         142.6818  137.8624  158.8443 C.ar    1  UNL1        0.0382
     16 C         142.8346  137.5216  157.3915 C.ar    1  UNL1        0.0757
     17 C         143.3105  138.5633  156.4228 C.ar    1  UNL1        0.0246
     18 C         143.6334  139.9458  156.9068 C.ar    1  UNL1        0.1002
     19 N         143.4805  140.2867  158.3595 N.ar    1  UNL1       -0.2292
     20 C         142.5117  136.1391  156.9074 C.3     1  UNL1        0.4187
     21 F         142.1888  134.7564  156.4235 F       1  UNL1       -0.1659
     22 F         143.1845  135.5588  158.1161 F       1  UNL1       -0.1659
     23 F         141.8389  136.7193  155.6989 F       1  UNL1       -0.1659
     24 C         142.4072  139.3423  166.6971 C.3     1  UNL1        0.0082
     25 C         142.6393  139.6872  168.1383 C.3     1  UNL1        0.0005
     26 C         143.2963  138.3479  166.0112 C.3     1  UNL1        0.0005
     27 N         137.7540  141.0737  164.7497 N.3     1  UNL1       -0.2995
     28 H         137.1177  140.2952  164.5782 H       1  UNL1        0.1232
     29 C         137.8954  143.3210  163.4535 C.3     1  UNL1        0.0441
     30 C         138.0238  144.0683  162.1593 C.3     1  UNL1        0.1434
     31 O         138.1392  143.3156  160.8669 O.3     1  UNL1       -0.3537
     32 C         138.1261  141.8157  160.8688 C.3     1  UNL1        0.1435
     33 C         137.9977  141.0684  162.1630 C.3     1  UNL1        0.0478
     34 C         137.8824  141.8211  163.4554 C.3     1  UNL1        0.0589
     35 C         139.0167  144.4610  165.5012 C.3     1  UNL1        0.0001
     36 C         137.7801  144.0736  164.7459 C.3     1  UNL1        0.0038
@<TRIPOS>BOND
     1    35    36    1
     2    36    29    1
     3    29    30    1
     4    30    31    1
     5    31    32    1
     6    32    33    1
     7    33    34    1
     8    34    27    1
     9     1    27    1
    10     1     2    1
    11     2     3    1
    12     3     4    1
    13     4     6    1
    14     6     7    2
    15     6     8   am
    16     8     9    1
    17     9    10    1
    18    10    11    1
    19    11    14    1
    20    14    15   ar
    21    15    16   ar
    22    16    20    1
    23    20    21    1
    24    20    22    1
    25    20    23    1
    26    16    17   ar
    27    17    18   ar
    28    18    19   ar
    29    11    12    1
    30    12    13    1
    31     4    24    1
    32    24    25    1
    33    24    26    1
    34     4     5    1
    35    34    29    1
    36     5     1    1
    37    13     8    1
    38    19    14   ar
    39    27    28    1
