@<TRIPOS>MOLECULE
*****
 33 37 0 0 0
SMALL
GASTEIGER

@<TRIPOS>ATOM
      1 N         138.3141  140.0017  159.8331 N.am    1  UNL1       -0.2438
      2 C         138.9432  138.6402  159.8043 C.3     1  UNL1        0.1001
      3 C         139.1296  138.1856  161.2215 C.3     1  UNL1        0.0306
      4 C         138.6157  139.2661  162.1264 C.3     1  UNL1        0.0737
      5 C         138.0666  140.4272  162.9011 C.3     1  UNL1        0.0260
      6 C         138.0582  140.3915  164.4006 C.3     1  UNL1        0.0727
      7 N         138.5988  139.1947  165.1254 N.3     1  UNL1       -0.2703
      8 C         139.1478  138.0335  164.3507 C.3     1  UNL1        0.0727
      9 C         139.1562  138.0692  162.8511 C.3     1  UNL1        0.0260
     10 C         138.1117  140.3884  161.2683 C.2     1  UNL1        0.2296
     11 O         137.5108  141.6722  161.7591 O.2     1  UNL1       -0.2745
     12 C         135.4240  140.7392  155.5784 C.3     1  UNL1        0.0737
     13 C         136.5061  141.1995  156.5096 C.ar    1  UNL1        0.1410
     14 N         137.2254  142.4889  156.2445 N.ar    1  UNL1       -0.2291
     15 C         138.3075  142.9491  157.1757 C.ar    1  UNL1        0.1031
     16 C         138.6704  142.1200  158.3719 C.ar    1  UNL1        0.0554
     17 C         137.9512  140.8307  158.6369 C.ar    1  UNL1        0.1403
     18 N         136.8691  140.3704  157.7058 N.ar    1  UNL1       -0.2156
     19 C         138.5903  139.1590  166.6250 C.3     1  UNL1        0.1063
     20 C         139.7533  139.7109  167.3949 C.3     1  UNL1        0.1483
     21 O         139.6751  139.8312  168.8880 O.3     1  UNL1       -0.3786
     22 H         140.5045  140.2034  169.2263 H       1  UNL1        0.2108
     23 C         140.9946  140.1426  166.6717 C.ar    1  UNL1        0.0015
     24 C         142.0634  139.1398  166.3520 C.ar    1  UNL1       -0.0020
     25 C         143.3046  139.5714  165.6288 C.ar    1  UNL1        0.0060
     26 C         143.4770  141.0058  165.2253 C.ar    1  UNL1        0.0748
     27 C         142.4083  142.0085  165.5450 C.ar    1  UNL1        0.0233
     28 C         141.1670  141.5770  166.2682 C.ar    1  UNL1       -0.0238
     29 C         140.0983  142.5797  166.5879 C.3     1  UNL1        0.0306
     30 C         142.8543  143.3430  165.0251 C.3     1  UNL1        0.2352
     31 O         144.1987  143.1650  164.3842 O.3     1  UNL1       -0.4404
     32 C         144.5836  141.7206  164.5079 C.2     1  UNL1        0.3413
     33 O         145.8522  141.0998  164.0029 O.2     1  UNL1       -0.2449
@<TRIPOS>BOND
     1    12    13    1
     2    13    14   ar
     3    14    15   ar
     4    15    16   ar
     5    16    17   ar
     6    17     1    1
     7     1     2    1
     8     2     3    1
     9     3     4    1
    10     4     5    1
    11     5     6    1
    12     6     7    1
    13     7    19    1
    14    19    20    1
    15    20    21    1
    16    20    23    1
    17    23    24   ar
    18    24    25   ar
    19    25    26   ar
    20    26    27   ar
    21    27    28   ar
    22    28    29    1
    23    27    30    1
    24    30    31    1
    25    31    32    1
    26    32    33    2
    27     7     8    1
    28     8     9    1
    29     4    10    1
    30    10    11    2
    31    17    18   ar
    32    18    13   ar
    33    10     1   am
    34     9     4    1
    35    28    23   ar
    36    32    26    1
    37    21    22    1
@<TRIPOS>MOLECULE
*****
 33 37 0 0 0
SMALL
GASTEIGER

@<TRIPOS>ATOM
      1 N         139.9801  144.9724  160.4636 N.am    1  UNL1       -0.2438
      2 C         139.7102  145.8909  161.6184 C.3     1  UNL1        0.1001
      3 C         139.2924  145.0524  162.7899 C.3     1  UNL1        0.0306
      4 C         139.3040  143.6155  162.3591 C.3     1  UNL1        0.0737
      5 C         139.3619  142.2301  161.7873 C.3     1  UNL1        0.0260
      6 C         139.0103  141.0500  162.6438 C.3     1  UNL1        0.0727
      7 N         138.6008  141.2553  164.0721 N.3     1  UNL1       -0.2703
      8 C         138.5429  142.6408  164.6439 C.3     1  UNL1        0.0727
      9 C         138.8945  143.8209  163.7874 C.3     1  UNL1        0.0260
     10 C         139.7291  143.5661  160.9214 C.2     1  UNL1        0.2296
     11 O         139.8770  142.3279  160.0878 O.2     1  UNL1       -0.2745
     12 C         139.0363  147.4195  155.9780 C.3     1  UNL1        0.0737
     13 C         139.9513  146.6108  156.8491 C.ar    1  UNL1        0.1410
     14 N         141.3094  146.2170  156.3486 N.ar    1  UNL1       -0.2291
     15 C         142.2243  145.4083  157.2197 C.ar    1  UNL1        0.1031
     16 C         141.7812  144.9935  158.5914 C.ar    1  UNL1        0.0554
     17 C         140.4232  145.3873  159.0919 C.ar    1  UNL1        0.1403
     18 N         139.5082  146.1959  158.2208 N.ar    1  UNL1       -0.2156
     19 C         138.2491  140.0751  164.9286 C.3     1  UNL1        0.1063
     20 C         139.2959  139.4375  165.7932 C.3     1  UNL1        0.1483
     21 O         139.9557  138.1634  165.3558 O.3     1  UNL1       -0.3786
     22 H         140.6026  137.8883  166.0242 H       1  UNL1        0.2108
     23 C         139.6829  140.0739  167.0953 C.ar    1  UNL1        0.0015
     24 C         138.8620  139.8238  168.3255 C.ar    1  UNL1       -0.0020
     25 C         139.2490  140.4602  169.6275 C.ar    1  UNL1        0.0060
     26 C         140.4569  141.3465  169.6993 C.ar    1  UNL1        0.0748
     27 C         141.2779  141.5966  168.4690 C.ar    1  UNL1        0.0233
     28 C         140.8909  140.9602  167.1670 C.ar    1  UNL1       -0.0238
     29 C         141.7118  141.2102  165.9368 C.3     1  UNL1        0.0306
     30 C         142.4073  142.5100  168.8432 C.3     1  UNL1        0.2352
     31 O         142.2844  142.8245  170.3047 O.3     1  UNL1       -0.4404
     32 C         141.0790  142.1054  170.8338 C.2     1  UNL1        0.3413
     33 O         140.5828  142.1393  172.2489 O.2     1  UNL1       -0.2449
@<TRIPOS>BOND
     1    12    13    1
     2    13    14   ar
     3    14    15   ar
     4    15    16   ar
     5    16    17   ar
     6    17     1    1
     7     1     2    1
     8     2     3    1
     9     3     4    1
    10     4     5    1
    11     5     6    1
    12     6     7    1
    13     7    19    1
    14    19    20    1
    15    20    21    1
    16    20    23    1
    17    23    24   ar
    18    24    25   ar
    19    25    26   ar
    20    26    27   ar
    21    27    28   ar
    22    28    29    1
    23    27    30    1
    24    30    31    1
    25    31    32    1
    26    32    33    2
    27     7     8    1
    28     8     9    1
    29     4    10    1
    30    10    11    2
    31    17    18   ar
    32    18    13   ar
    33    10     1   am
    34     9     4    1
    35    28    23   ar
    36    32    26    1
    37    21    22    1
@<TRIPOS>MOLECULE
*****
 33 37 0 0 0
SMALL
GASTEIGER

@<TRIPOS>ATOM
      1 N         143.0220  138.5794  159.8247 N.am    1  UNL1       -0.2438
      2 C         144.0952  138.6060  160.8724 C.3     1  UNL1        0.1001
      3 C         143.4434  138.4069  162.2087 C.3     1  UNL1        0.0306
      4 C         141.9674  138.2572  161.9868 C.3     1  UNL1        0.0737
      5 C         140.5211  138.1252  161.6118 C.3     1  UNL1        0.0260
      6 C         139.4872  137.9072  162.6764 C.3     1  UNL1        0.0727
      7 N         139.8996  137.8213  164.1161 N.3     1  UNL1       -0.2703
      8 C         141.3459  137.9533  164.4911 C.3     1  UNL1        0.0727
      9 C         142.3798  138.1713  163.4265 C.3     1  UNL1        0.0260
     10 C         141.7070  138.3638  160.5135 C.2     1  UNL1        0.2296
     11 O         140.3669  138.2712  159.8460 O.2     1  UNL1       -0.2745
     12 C         145.1063  141.1616  155.8263 C.3     1  UNL1        0.0737
     13 C         144.2699  140.0312  156.3484 C.ar    1  UNL1        0.1410
     14 N         143.6392  139.0615  155.3934 N.ar    1  UNL1       -0.2291
     15 C         142.8028  137.9312  155.9155 C.ar    1  UNL1        0.1031
     16 C         142.5971  137.7705  157.3926 C.ar    1  UNL1        0.0554
     17 C         143.2277  138.7401  158.3476 C.ar    1  UNL1        0.1403
     18 N         144.0641  139.8705  157.8255 N.ar    1  UNL1       -0.2156
     19 C         138.8655  137.6033  165.1807 C.3     1  UNL1        0.1063
     20 C         138.1632  138.7774  165.7956 C.3     1  UNL1        0.1483
     21 O         137.3276  138.5906  167.0273 O.3     1  UNL1       -0.3786
     22 H         136.9471  139.4426  167.2921 H       1  UNL1        0.2108
     23 C         138.2964  140.1383  165.1790 C.ar    1  UNL1        0.0015
     24 C         137.4762  140.5003  163.9764 C.ar    1  UNL1       -0.0020
     25 C         137.6094  141.8612  163.3597 C.ar    1  UNL1        0.0060
     26 C         138.5628  142.8600  163.9457 C.ar    1  UNL1        0.0748
     27 C         139.3829  142.4980  165.1483 C.ar    1  UNL1        0.0233
     28 C         139.2498  141.1371  165.7649 C.ar    1  UNL1       -0.0238
     29 C         140.0699  140.7751  166.9675 C.3     1  UNL1        0.0306
     30 C         140.2330  143.6818  165.5030 C.3     1  UNL1        0.2352
     31 O         139.9382  144.7755  164.5197 O.3     1  UNL1       -0.4404
     32 C         138.9060  144.2676  163.5572 C.2     1  UNL1        0.3413
     33 O         138.3198  145.0329  162.4080 O.2     1  UNL1       -0.2449
@<TRIPOS>BOND
     1    12    13    1
     2    13    14   ar
     3    14    15   ar
     4    15    16   ar
     5    16    17   ar
     6    17     1    1
     7     1     2    1
     8     2     3    1
     9     3     4    1
    10     4     5    1
    11     5     6    1
    12     6     7    1
    13     7    19    1
    14    19    20    1
    15    20    21    1
    16    20    23    1
    17    23    24   ar
    18    24    25   ar
    19    25    26   ar
    20    26    27   ar
    21    27    28   ar
    22    28    29    1
    23    27    30    1
    24    30    31    1
    25    31    32    1
    26    32    33    2
    27     7     8    1
    28     8     9    1
    29     4    10    1
    30    10    11    2
    31    17    18   ar
    32    18    13   ar
    33    10     1   am
    34     9     4    1
    35    28    23   ar
    36    32    26    1
    37    21    22    1
@<TRIPOS>MOLECULE
*****
 33 37 0 0 0
SMALL
GASTEIGER

@<TRIPOS>ATOM
      1 N         141.4076  139.9309  167.5201 N.am    1  UNL1       -0.2438
      2 C         142.6560  139.1842  167.1539 C.3     1  UNL1        0.1001
      3 C         142.4749  138.6274  165.7729 C.3     1  UNL1        0.0306
      4 C         141.1146  139.0300  165.2855 C.3     1  UNL1        0.0737
      5 C         139.7354  139.5052  164.9360 C.3     1  UNL1        0.0260
      6 C         139.1395  139.1624  163.6029 C.3     1  UNL1        0.0727
      7 N         139.9226  138.3443  162.6193 N.3     1  UNL1       -0.2703
      8 C         141.3017  137.8691  162.9687 C.3     1  UNL1        0.0727
      9 C         141.8977  138.2120  164.3018 C.3     1  UNL1        0.0260
     10 C         140.4549  139.8356  166.3653 C.2     1  UNL1        0.2296
     11 O         139.0835  140.4398  166.3015 O.2     1  UNL1       -0.2745
     12 C         140.3755  144.3163  170.1089 C.3     1  UNL1        0.0737
     13 C         140.6399  142.8398  170.1082 C.ar    1  UNL1        0.1410
     14 N         140.6528  142.0796  171.4012 N.ar    1  UNL1       -0.2291
     15 C         140.9173  140.6031  171.4004 C.ar    1  UNL1        0.1031
     16 C         141.1689  139.8869  170.1067 C.ar    1  UNL1        0.0554
     17 C         141.1560  140.6471  168.8138 C.ar    1  UNL1        0.1403
     18 N         140.8915  142.1236  168.8145 N.ar    1  UNL1       -0.2156
     19 C         139.3265  138.0015  161.2861 C.3     1  UNL1        0.1063
     20 C         139.6055  138.8688  160.0945 C.3     1  UNL1        0.1483
     21 O         139.7411  138.2526  158.7336 O.3     1  UNL1       -0.3786
     22 H         139.9190  138.9472  158.0804 H       1  UNL1        0.2108
     23 C         139.7488  140.3524  160.2637 C.ar    1  UNL1        0.0015
     24 C         138.5279  141.2136  160.3958 C.ar    1  UNL1       -0.0020
     25 C         138.6712  142.6971  160.5650 C.ar    1  UNL1        0.0060
     26 C         140.0355  143.3193  160.6020 C.ar    1  UNL1        0.0748
     27 C         141.2564  142.4581  160.4698 C.ar    1  UNL1        0.0233
     28 C         141.1131  140.9746  160.3007 C.ar    1  UNL1       -0.0238
     29 C         142.3341  140.1134  160.1685 C.3     1  UNL1        0.0306
     30 C         142.4616  143.3483  160.5422 C.3     1  UNL1        0.2352
     31 O         141.9854  144.7597  160.7191 O.3     1  UNL1       -0.4404
     32 C         140.4860  144.7418  160.7561 C.2     1  UNL1        0.3413
     33 O         139.5937  145.9365  160.9186 O.2     1  UNL1       -0.2449
@<TRIPOS>BOND
     1    12    13    1
     2    13    14   ar
     3    14    15   ar
     4    15    16   ar
     5    16    17   ar
     6    17     1    1
     7     1     2    1
     8     2     3    1
     9     3     4    1
    10     4     5    1
    11     5     6    1
    12     6     7    1
    13     7    19    1
    14    19    20    1
    15    20    21    1
    16    20    23    1
    17    23    24   ar
    18    24    25   ar
    19    25    26   ar
    20    26    27   ar
    21    27    28   ar
    22    28    29    1
    23    27    30    1
    24    30    31    1
    25    31    32    1
    26    32    33    2
    27     7     8    1
    28     8     9    1
    29     4    10    1
    30    10    11    2
    31    17    18   ar
    32    18    13   ar
    33    10     1   am
    34     9     4    1
    35    28    23   ar
    36    32    26    1
    37    21    22    1
@<TRIPOS>MOLECULE
*****
 33 37 0 0 0
SMALL
GASTEIGER

@<TRIPOS>ATOM
      1 N         140.0109  139.9475  167.5351 N.am    1  UNL1       -0.2438
      2 C         138.7152  139.3502  167.0719 C.3     1  UNL1        0.1001
      3 C         138.9486  138.7199  165.7310 C.3     1  UNL1        0.0306
      4 C         140.3885  138.9276  165.3653 C.3     1  UNL1        0.0737
      5 C         141.8437  139.2104  165.1367 C.3     1  UNL1        0.0260
      6 C         142.5099  138.7417  163.8772 C.3     1  UNL1        0.0727
      7 N         141.7210  137.9901  162.8463 N.3     1  UNL1       -0.2703
      8 C         140.2658  137.7072  163.0750 C.3     1  UNL1        0.0727
      9 C         139.5995  138.1760  164.3344 C.3     1  UNL1        0.0260
     10 C         141.0451  139.6863  166.4803 C.2     1  UNL1        0.2296
     11 O         142.4832  140.1095  166.5316 O.2     1  UNL1       -0.2745
     12 C         140.3401  144.4050  170.1850 C.3     1  UNL1        0.0737
     13 C         140.3981  142.9065  170.1512 C.ar    1  UNL1        0.1410
     14 N         140.6785  142.1383  171.4087 N.ar    1  UNL1       -0.2291
     15 C         140.7364  140.6398  171.3749 C.ar    1  UNL1        0.1031
     16 C         140.5139  139.9096  170.0837 C.ar    1  UNL1        0.0554
     17 C         140.2335  140.6778  168.8263 C.ar    1  UNL1        0.1403
     18 N         140.1755  142.1763  168.8601 N.ar    1  UNL1       -0.2156
     19 C         142.3874  137.5214  161.5868 C.3     1  UNL1        0.1063
     20 C         142.5388  138.4581  160.4251 C.3     1  UNL1        0.1483
     21 O         143.1949  137.9860  159.1616 O.3     1  UNL1       -0.3786
     22 H         143.2120  138.7099  158.5161 H       1  UNL1        0.2108
     23 C         142.0341  139.8670  160.5270 C.ar    1  UNL1        0.0015
     24 C         140.6116  140.1818  160.1698 C.ar    1  UNL1       -0.0020
     25 C         140.1069  141.5906  160.2716 C.ar    1  UNL1        0.0060
     26 C         141.0247  142.6847  160.7306 C.ar    1  UNL1        0.0748
     27 C         142.4471  142.3700  161.0877 C.ar    1  UNL1        0.0233
     28 C         142.9518  140.9611  160.9859 C.ar    1  UNL1       -0.0238
     29 C         144.3743  140.6464  161.3431 C.3     1  UNL1        0.0306
     30 C         143.1135  143.6471  161.5060 C.3     1  UNL1        0.2352
     31 O         142.1029  144.7511  161.4074 O.3     1  UNL1       -0.4404
     32 C         140.8119  144.1563  160.9282 C.2     1  UNL1        0.3413
     33 O         139.5328  144.9022  160.6886 O.2     1  UNL1       -0.2449
@<TRIPOS>BOND
     1    12    13    1
     2    13    14   ar
     3    14    15   ar
     4    15    16   ar
     5    16    17   ar
     6    17     1    1
     7     1     2    1
     8     2     3    1
     9     3     4    1
    10     4     5    1
    11     5     6    1
    12     6     7    1
    13     7    19    1
    14    19    20    1
    15    20    21    1
    16    20    23    1
    17    23    24   ar
    18    24    25   ar
    19    25    26   ar
    20    26    27   ar
    21    27    28   ar
    22    28    29    1
    23    27    30    1
    24    30    31    1
    25    31    32    1
    26    32    33    2
    27     7     8    1
    28     8     9    1
    29     4    10    1
    30    10    11    2
    31    17    18   ar
    32    18    13   ar
    33    10     1   am
    34     9     4    1
    35    28    23   ar
    36    32    26    1
    37    21    22    1
@<TRIPOS>MOLECULE
*****
 33 37 0 0 0
SMALL
GASTEIGER

@<TRIPOS>ATOM
      1 N         142.9654  138.3408  159.4368 N.am    1  UNL1       -0.2438
      2 C         142.9478  137.3645  160.5755 C.3     1  UNL1        0.1001
      3 C         143.4734  138.0638  161.7939 C.3     1  UNL1        0.0306
      4 C         143.8160  139.4725  161.4083 C.3     1  UNL1        0.0737
      5 C         144.1104  140.8442  160.8778 C.3     1  UNL1        0.0260
      6 C         144.6688  141.8968  161.7890 C.3     1  UNL1        0.0727
      7 N         144.9328  141.5776  163.2307 N.3     1  UNL1       -0.2703
      8 C         144.6383  140.2058  163.7612 C.3     1  UNL1        0.0727
      9 C         144.0799  139.1532  162.8500 C.3     1  UNL1        0.0260
     10 C         143.5020  139.6436  159.9516 C.2     1  UNL1        0.2296
     11 O         143.6913  140.8974  159.1502 O.2     1  UNL1       -0.2745
     12 C         143.3996  135.6031  155.0418 C.3     1  UNL1        0.0737
     13 C         142.7411  136.6942  155.8329 C.ar    1  UNL1        0.1410
     14 N         141.6412  137.5077  155.2176 N.ar    1  UNL1       -0.2291
     15 C         140.9828  138.5987  156.0087 C.ar    1  UNL1        0.1031
     16 C         141.4242  138.8764  157.4151 C.ar    1  UNL1        0.0554
     17 C         142.5240  138.0631  158.0304 C.ar    1  UNL1        0.1403
     18 N         143.1825  136.9719  157.2393 N.ar    1  UNL1       -0.2156
     19 C         145.4912  142.6302  164.1418 C.3     1  UNL1        0.1063
     20 C         144.5689  143.4510  164.9936 C.3     1  UNL1        0.1483
     21 O         145.0665  144.0507  166.2753 O.3     1  UNL1       -0.3786
     22 H         144.3492  144.5467  166.7001 H       1  UNL1        0.2108
     23 C         143.1488  143.6720  164.5638 C.ar    1  UNL1        0.0015
     24 C         142.8332  144.6997  163.5177 C.ar    1  UNL1       -0.0020
     25 C         141.4133  144.9208  163.0878 C.ar    1  UNL1        0.0060
     26 C         140.3089  144.1142  163.7040 C.ar    1  UNL1        0.0748
     27 C         140.6245  143.0865  164.7501 C.ar    1  UNL1        0.0233
     28 C         142.0445  142.8654  165.1800 C.ar    1  UNL1       -0.0238
     29 C         142.3601  141.8378  166.2261 C.3     1  UNL1        0.0306
     30 C         139.3359  142.4474  165.1757 C.3     1  UNL1        0.2352
     31 O         138.2239  143.0801  164.3926 O.3     1  UNL1       -0.4404
     32 C         138.8253  144.1102  163.4831 C.2     1  UNL1        0.3413
     33 O         138.0748  144.9831  162.5214 O.2     1  UNL1       -0.2449
@<TRIPOS>BOND
     1    12    13    1
     2    13    14   ar
     3    14    15   ar
     4    15    16   ar
     5    16    17   ar
     6    17     1    1
     7     1     2    1
     8     2     3    1
     9     3     4    1
    10     4     5    1
    11     5     6    1
    12     6     7    1
    13     7    19    1
    14    19    20    1
    15    20    21    1
    16    20    23    1
    17    23    24   ar
    18    24    25   ar
    19    25    26   ar
    20    26    27   ar
    21    27    28   ar
    22    28    29    1
    23    27    30    1
    24    30    31    1
    25    31    32    1
    26    32    33    2
    27     7     8    1
    28     8     9    1
    29     4    10    1
    30    10    11    2
    31    17    18   ar
    32    18    13   ar
    33    10     1   am
    34     9     4    1
    35    28    23   ar
    36    32    26    1
    37    21    22    1
@<TRIPOS>MOLECULE
*****
 33 37 0 0 0
SMALL
GASTEIGER

@<TRIPOS>ATOM
      1 N         142.8991  138.2861  160.0458 N.am    1  UNL1       -0.2438
      2 C         144.1094  139.1517  160.2357 C.3     1  UNL1        0.1001
      3 C         144.1924  139.5207  161.6872 C.3     1  UNL1        0.0306
      4 C         143.0333  138.8832  162.3946 C.3     1  UNL1        0.0737
      5 C         141.8321  138.1871  162.9624 C.3     1  UNL1        0.0260
      6 C         141.5261  138.2939  164.4270 C.3     1  UNL1        0.0727
      7 N         142.4212  139.0969  165.3236 N.3     1  UNL1       -0.2703
      8 C         143.6224  139.7930  164.7557 C.3     1  UNL1        0.0727
      9 C         143.9284  139.6862  163.2912 C.3     1  UNL1        0.0260
     10 C         142.2340  138.1202  161.3802 C.2     1  UNL1        0.2296
     11 O         140.9884  137.3301  161.6522 O.2     1  UNL1       -0.2745
     12 C         143.6105  134.9757  156.1045 C.3     1  UNL1        0.0737
     13 C         142.7910  136.0357  156.7788 C.ar    1  UNL1        0.1410
     14 N         141.5077  136.5007  156.1567 N.ar    1  UNL1       -0.2291
     15 C         140.6883  137.5607  156.8310 C.ar    1  UNL1        0.1031
     16 C         141.1521  138.1558  158.1274 C.ar    1  UNL1        0.0554
     17 C         142.4353  137.6910  158.7495 C.ar    1  UNL1        0.1403
     18 N         143.2548  136.6309  158.0752 N.ar    1  UNL1       -0.2156
     19 C         142.1151  139.2037  166.7882 C.3     1  UNL1        0.1063
     20 C         141.1074  140.2035  167.2729 C.3     1  UNL1        0.1483
     21 O         140.6366  140.1641  168.6965 O.3     1  UNL1       -0.3786
     22 H         139.9914  140.8733  168.8435 H       1  UNL1        0.2108
     23 C         140.5705  141.2427  166.3338 C.ar    1  UNL1        0.0015
     24 C         141.3336  142.5138  166.1061 C.ar    1  UNL1       -0.0020
     25 C         140.7967  143.5531  165.1672 C.ar    1  UNL1        0.0060
     26 C         139.4967  143.3212  164.4559 C.ar    1  UNL1        0.0748
     27 C         138.7335  142.0500  164.6836 C.ar    1  UNL1        0.0233
     28 C         139.2704  141.0108  165.6225 C.ar    1  UNL1       -0.0238
     29 C         138.5072  139.7397  165.8502 C.3     1  UNL1        0.0306
     30 C         137.4890  142.1006  163.8477 C.3     1  UNL1        0.2352
     31 O         137.4829  143.4029  163.1035 O.3     1  UNL1       -0.4404
     32 C         138.7238  144.1572  163.4793 C.2     1  UNL1        0.3413
     33 O         139.1219  145.5102  162.9684 O.2     1  UNL1       -0.2449
@<TRIPOS>BOND
     1    12    13    1
     2    13    14   ar
     3    14    15   ar
     4    15    16   ar
     5    16    17   ar
     6    17     1    1
     7     1     2    1
     8     2     3    1
     9     3     4    1
    10     4     5    1
    11     5     6    1
    12     6     7    1
    13     7    19    1
    14    19    20    1
    15    20    21    1
    16    20    23    1
    17    23    24   ar
    18    24    25   ar
    19    25    26   ar
    20    26    27   ar
    21    27    28   ar
    22    28    29    1
    23    27    30    1
    24    30    31    1
    25    31    32    1
    26    32    33    2
    27     7     8    1
    28     8     9    1
    29     4    10    1
    30    10    11    2
    31    17    18   ar
    32    18    13   ar
    33    10     1   am
    34     9     4    1
    35    28    23   ar
    36    32    26    1
    37    21    22    1
@<TRIPOS>MOLECULE
*****
 33 37 0 0 0
SMALL
GASTEIGER

@<TRIPOS>ATOM
      1 N         142.6142  139.9731  167.3719 N.am    1  UNL1       -0.2438
      2 C         143.1792  138.6656  166.9013 C.3     1  UNL1        0.1001
      3 C         143.7575  138.8761  165.5334 C.3     1  UNL1        0.0306
      4 C         143.5500  140.3137  165.1585 C.3     1  UNL1        0.0737
      5 C         143.2731  141.7690  164.9234 C.3     1  UNL1        0.0260
      6 C         143.6976  142.4150  163.6380 C.3     1  UNL1        0.0727
      7 N         144.3992  141.6058  162.5878 N.3     1  UNL1       -0.2703
      8 C         144.6762  140.1505  162.8229 C.3     1  UNL1        0.0727
      9 C         144.2516  139.5044  164.1083 C.3     1  UNL1        0.0260
     10 C         142.8434  140.9916  166.2948 C.2     1  UNL1        0.2296
     11 O         142.4373  142.4347  166.3451 O.2     1  UNL1       -0.2745
     12 C         138.2900  140.1456  170.2479 C.3     1  UNL1        0.0737
     13 C         139.7765  140.3051  170.1264 C.ar    1  UNL1        0.1410
     14 N         140.5875  140.7104  171.3214 N.ar    1  UNL1       -0.2291
     15 C         142.0740  140.8699  171.1999 C.ar    1  UNL1        0.1031
     16 C         142.7495  140.6241  169.8834 C.ar    1  UNL1        0.0554
     17 C         141.9386  140.2188  168.6884 C.ar    1  UNL1        0.1403
     18 N         140.4521  140.0593  168.8099 N.ar    1  UNL1       -0.2156
     19 C         144.8238  142.2520  161.3023 C.3     1  UNL1        0.1063
     20 C         143.7902  142.7391  160.3306 C.3     1  UNL1        0.1483
     21 O         144.1553  142.9525  158.8914 O.3     1  UNL1       -0.3786
     22 H         143.3778  143.2664  158.4037 H       1  UNL1        0.2108
     23 C         142.3914  143.0129  160.7980 C.ar    1  UNL1        0.0015
     24 C         142.0214  144.3778  161.2983 C.ar    1  UNL1       -0.0020
     25 C         140.6227  144.6516  161.7657 C.ar    1  UNL1        0.0060
     26 C         139.5939  143.5606  161.7328 C.ar    1  UNL1        0.0748
     27 C         139.9638  142.1957  161.2324 C.ar    1  UNL1        0.0233
     28 C         141.3625  141.9219  160.7650 C.ar    1  UNL1       -0.0238
     29 C         141.7325  140.5570  160.2647 C.3     1  UNL1        0.0306
     30 C         138.7451  141.3252  161.3164 C.3     1  UNL1        0.2352
     31 O         137.6220  142.1521  161.8686 O.3     1  UNL1       -0.4404
     32 C         138.1466  143.5336  162.1259 C.2     1  UNL1        0.3413
     33 O         137.3616  144.6859  162.6793 O.2     1  UNL1       -0.2449
@<TRIPOS>BOND
     1    12    13    1
     2    13    14   ar
     3    14    15   ar
     4    15    16   ar
     5    16    17   ar
     6    17     1    1
     7     1     2    1
     8     2     3    1
     9     3     4    1
    10     4     5    1
    11     5     6    1
    12     6     7    1
    13     7    19    1
    14    19    20    1
    15    20    21    1
    16    20    23    1
    17    23    24   ar
    18    24    25   ar
    19    25    26   ar
    20    26    27   ar
    21    27    28   ar
    22    28    29    1
    23    27    30    1
    24    30    31    1
    25    31    32    1
    26    32    33    2
    27     7     8    1
    28     8     9    1
    29     4    10    1
    30    10    11    2
    31    17    18   ar
    32    18    13   ar
    33    10     1   am
    34     9     4    1
    35    28    23   ar
    36    32    26    1
    37    21    22    1
@<TRIPOS>MOLECULE
*****
 33 37 0 0 0
SMALL
GASTEIGER

@<TRIPOS>ATOM
      1 N         141.0926  138.5366  158.7789 N.am    1  UNL1       -0.2438
      2 C         139.7173  139.0767  158.5198 C.3     1  UNL1        0.1001
      3 C         138.9716  139.0896  159.8212 C.3     1  UNL1        0.0306
      4 C         139.8859  138.5575  160.8847 C.3     1  UNL1        0.0737
      5 C         140.9082  138.0089  161.8354 C.3     1  UNL1        0.0260
      6 C         140.5709  137.8470  163.2880 C.3     1  UNL1        0.0727
      7 N         139.2112  138.2337  163.7898 N.3     1  UNL1       -0.2703
      8 C         138.1890  138.7824  162.8391 C.3     1  UNL1        0.0727
      9 C         138.5263  138.9442  161.3866 C.3     1  UNL1        0.0260
     10 C         141.1967  138.2158  160.2406 C.2     1  UNL1        0.2296
     11 O         142.4004  137.6521  160.9359 O.2     1  UNL1       -0.2745
     12 C         143.8635  135.4228  155.6765 C.3     1  UNL1        0.0737
     13 C         143.5593  136.7933  156.2049 C.ar    1  UNL1        0.1410
     14 N         144.3362  137.9773  155.7104 N.ar    1  UNL1       -0.2291
     15 C         144.0319  139.3477  156.2389 C.ar    1  UNL1        0.1031
     16 C         142.9507  139.5341  157.2617 C.ar    1  UNL1        0.0554
     17 C         142.1738  138.3502  157.7561 C.ar    1  UNL1        0.1403
     18 N         142.4781  136.9797  157.2277 N.ar    1  UNL1       -0.2156
     19 C         138.8739  138.0718  165.2425 C.3     1  UNL1        0.1063
     20 C         139.0825  139.2135  166.1927 C.3     1  UNL1        0.1483
     21 O         138.5964  139.1099  167.6079 O.3     1  UNL1       -0.3786
     22 H         138.8096  139.9278  168.0837 H       1  UNL1        0.2108
     23 C         139.7773  140.4590  165.7276 C.ar    1  UNL1        0.0015
     24 C         138.9802  141.5924  165.1532 C.ar    1  UNL1       -0.0020
     25 C         139.6749  142.8378  164.6882 C.ar    1  UNL1        0.0060
     26 C         141.1667  142.9498  164.7975 C.ar    1  UNL1        0.0748
     27 C         141.9638  141.8164  165.3719 C.ar    1  UNL1        0.0233
     28 C         141.2691  140.5710  165.8370 C.ar    1  UNL1       -0.0238
     29 C         142.0662  139.4375  166.4114 C.3     1  UNL1        0.0306
     30 C         143.4107  142.2115  165.3541 C.3     1  UNL1        0.2352
     31 O         143.5079  143.5891  164.7687 O.3     1  UNL1       -0.4404
     32 C         142.1210  144.0454  164.4247 C.2     1  UNL1        0.3413
     33 O         141.7530  145.3656  163.8150 O.2     1  UNL1       -0.2449
@<TRIPOS>BOND
     1    12    13    1
     2    13    14   ar
     3    14    15   ar
     4    15    16   ar
     5    16    17   ar
     6    17     1    1
     7     1     2    1
     8     2     3    1
     9     3     4    1
    10     4     5    1
    11     5     6    1
    12     6     7    1
    13     7    19    1
    14    19    20    1
    15    20    21    1
    16    20    23    1
    17    23    24   ar
    18    24    25   ar
    19    25    26   ar
    20    26    27   ar
    21    27    28   ar
    22    28    29    1
    23    27    30    1
    24    30    31    1
    25    31    32    1
    26    32    33    2
    27     7     8    1
    28     8     9    1
    29     4    10    1
    30    10    11    2
    31    17    18   ar
    32    18    13   ar
    33    10     1   am
    34     9     4    1
    35    28    23   ar
    36    32    26    1
    37    21    22    1
