@<TRIPOS>MOLECULE
*****
 32 35 0 0 0
SMALL
GASTEIGER

@<TRIPOS>ATOM
      1 N         139.1283  144.8210  155.9939 N.am    1  UNL1       -0.2693
      2 C         139.7806  144.2637  157.2242 C.3     1  UNL1        0.1154
      3 C         139.2382  143.0193  157.8624 C.3     1  UNL1        0.1156
      4 N         138.0435  142.3323  157.2702 N.am    1  UNL1       -0.2660
      5 C         137.5011  141.0879  157.9085 C.2     1  UNL1        0.2496
      6 O         136.3064  140.4009  157.3163 O.2     1  UNL1       -0.2699
      7 C         137.3912  142.8896  156.0399 C.3     1  UNL1        0.1796
      8 C         137.9336  144.1340  155.4017 C.2     1  UNL1        0.2463
      9 O         137.2813  144.6914  154.1713 O.2     1  UNL1       -0.2730
     10 C         138.1534  140.5306  159.1389 C.2     1  UNL1        0.0579
     11 C         137.3157  140.1387  160.3199 C.2     1  UNL1        0.0044
     12 C         137.9680  139.5814  161.5502 C.ar    1  UNL1       -0.0018
     13 C         138.6150  138.2288  161.5088 C.ar    1  UNL1        0.0006
     14 C         139.2673  137.6714  162.7392 C.ar    1  UNL1        0.0114
     15 C         139.2726  138.4667  164.0111 C.ar    1  UNL1        0.0574
     16 CL        139.9249  137.9094  165.2414 Cl      1  UNL1       -0.0823
     17 C         138.6255  139.8193  164.0525 C.ar    1  UNL1        0.0091
     18 C         137.9732  140.3767  162.8220 C.ar    1  UNL1        0.0048
     19 C         137.3261  141.7293  162.8634 C.3     1  UNL1        0.1777
     20 N         138.0978  142.9432  162.4380 N.ar    1  UNL1       -0.1467
     21 N         137.7124  144.3692  162.6991 N.ar    1  UNL1       -0.0451
     22 N         138.7667  145.2516  162.0993 N.ar    1  UNL1       -0.1123
     23 C         139.8037  144.3709  161.4675 C.ar    1  UNL1        0.1838
     24 C         141.0375  144.8354  160.7519 C.3     1  UNL1        0.0776
     25 N         139.3903  142.9443  161.6768 N.ar    1  UNL1       -0.1339
     26 C         139.6707  146.0654  155.3556 C.3     1  UNL1        0.1611
     27 C         138.4268  151.1954  155.4867 C.3     1  UNL1        0.0557
     28 C         138.6508  149.7708  155.8994 C.ar    1  UNL1        0.1008
     29 C         139.1499  148.6653  155.0169 C.ar    1  UNL1        0.0553
     30 C         139.2226  147.4128  155.8391 C.ar    1  UNL1        0.1741
     31 O         138.7686  147.7443  157.2298 O.2     1  UNL1       -0.3563
     32 N         138.4152  149.2016  157.2671 N.ar    1  UNL1       -0.0817
@<TRIPOS>BOND
     1    27    28    1
     2    28    29   ar
     3    29    30   ar
     4    30    26    1
     5    26     1    1
     6     1     2    1
     7     2     3    1
     8     3     4    1
     9     4     5   am
    10     5     6    2
    11     5    10    1
    12    10    11    2
    13    11    12    1
    14    12    13   ar
    15    13    14   ar
    16    14    15   ar
    17    15    16    1
    18    15    17   ar
    19    17    18   ar
    20    18    19    1
    21    19    20    1
    22    20    21   ar
    23    21    22   ar
    24    22    23   ar
    25    23    24    1
    26    23    25   ar
    27     4     7    1
    28     7     8    1
    29     8     9    2
    30    30    31   ar
    31    31    32   ar
    32    32    28   ar
    33     8     1   am
    34    18    12   ar
    35    25    20   ar
@<TRIPOS>MOLECULE
*****
 32 35 0 0 0
SMALL
GASTEIGER

@<TRIPOS>ATOM
      1 N         138.4041  141.6665  159.6422 N.am    1  UNL1       -0.2693
      2 C         138.4223  142.3395  160.9826 C.3     1  UNL1        0.1154
      3 C         138.5108  141.5169  162.2337 C.3     1  UNL1        0.1156
      4 N         138.5812  140.0212  162.1445 N.am    1  UNL1       -0.2660
      5 C         138.6697  139.1985  163.3957 C.2     1  UNL1        0.2496
      6 O         138.7401  137.7028  163.3064 O.2     1  UNL1       -0.2699
      7 C         138.5630  139.3481  160.8041 C.3     1  UNL1        0.1796
      8 C         138.4745  140.1708  159.5530 C.2     1  UNL1        0.2463
      9 O         138.4563  139.4978  158.2125 O.2     1  UNL1       -0.2730
     10 C         138.6879  139.8715  164.7361 C.2     1  UNL1        0.0579
     11 C         139.9581  139.9228  165.5325 C.2     1  UNL1        0.0044
     12 C         139.9762  140.5958  166.8728 C.ar    1  UNL1       -0.0018
     13 C         139.3608  139.9178  168.0609 C.ar    1  UNL1        0.0006
     14 C         139.3790  140.5909  169.4013 C.ar    1  UNL1        0.0114
     15 C         140.0126  141.9420  169.5536 C.ar    1  UNL1        0.0574
     16 CL        140.0308  142.6150  170.8940 Cl      1  UNL1       -0.0823
     17 C         140.6280  142.6199  168.3656 C.ar    1  UNL1        0.0091
     18 C         140.6098  141.9468  167.0251 C.ar    1  UNL1        0.0048
     19 C         141.2253  142.6248  165.8370 C.3     1  UNL1        0.1777
     20 N         140.3909  143.5183  164.9678 N.ar    1  UNL1       -0.1467
     21 N         138.9117  143.7358  165.0897 N.ar    1  UNL1       -0.0451
     22 N         138.4958  144.7030  164.0214 N.ar    1  UNL1       -0.1123
     23 C         139.7179  145.0833  163.2391 C.ar    1  UNL1        0.1838
     24 C         139.7612  146.0297  162.0761 C.3     1  UNL1        0.0776
     25 N         140.8891  144.3511  163.8240 N.ar    1  UNL1       -0.1339
     26 C         138.3155  142.4892  158.3910 C.3     1  UNL1        0.1611
     27 C         142.2534  145.0569  155.9867 C.3     1  UNL1        0.0557
     28 C         141.1904  144.6793  156.9753 C.ar    1  UNL1        0.1008
     29 C         140.2836  143.4880  156.8830 C.ar    1  UNL1        0.0553
     30 C         139.3804  143.4990  158.0805 C.ar    1  UNL1        0.1741
     31 O         139.7289  144.6971  158.9129 O.2     1  UNL1       -0.3563
     32 N         140.8475  145.4266  158.2299 N.ar    1  UNL1       -0.0817
@<TRIPOS>BOND
     1    27    28    1
     2    28    29   ar
     3    29    30   ar
     4    30    26    1
     5    26     1    1
     6     1     2    1
     7     2     3    1
     8     3     4    1
     9     4     5   am
    10     5     6    2
    11     5    10    1
    12    10    11    2
    13    11    12    1
    14    12    13   ar
    15    13    14   ar
    16    14    15   ar
    17    15    16    1
    18    15    17   ar
    19    17    18   ar
    20    18    19    1
    21    19    20    1
    22    20    21   ar
    23    21    22   ar
    24    22    23   ar
    25    23    24    1
    26    23    25   ar
    27     4     7    1
    28     7     8    1
    29     8     9    2
    30    30    31   ar
    31    31    32   ar
    32    32    28   ar
    33     8     1   am
    34    18    12   ar
    35    25    20   ar
@<TRIPOS>MOLECULE
*****
 32 35 0 0 0
SMALL
GASTEIGER

@<TRIPOS>ATOM
      1 N         138.7258  140.9566  159.5658 N.am    1  UNL1       -0.2693
      2 C         138.5812  141.6855  160.8687 C.3     1  UNL1        0.1154
      3 C         138.7763  140.9535  162.1633 C.3     1  UNL1        0.1156
      4 N         139.1160  139.4925  162.1549 N.am    1  UNL1       -0.2660
      5 C         139.3111  138.7604  163.4496 C.2     1  UNL1        0.2496
      6 O         139.6507  137.2994  163.4413 O.2     1  UNL1       -0.2699
      7 C         139.2605  138.7635  160.8520 C.3     1  UNL1        0.1796
      8 C         139.0654  139.4956  159.5574 C.2     1  UNL1        0.2463
      9 O         139.2100  138.7666  158.2544 O.2     1  UNL1       -0.2730
     10 C         139.1665  139.4894  164.7525 C.2     1  UNL1        0.0579
     11 C         140.3867  139.9486  165.4945 C.2     1  UNL1        0.0044
     12 C         140.2421  140.6775  166.7974 C.ar    1  UNL1       -0.0018
     13 C         139.6389  139.9832  167.9824 C.ar    1  UNL1        0.0006
     14 C         139.4944  140.7122  169.2853 C.ar    1  UNL1        0.0114
     15 C         139.9530  142.1355  169.4033 C.ar    1  UNL1        0.0574
     16 CL        139.8084  142.8645  170.7062 Cl      1  UNL1       -0.0823
     17 C         140.5561  142.8298  168.2184 C.ar    1  UNL1        0.0091
     18 C         140.7007  142.1008  166.9154 C.ar    1  UNL1        0.0048
     19 C         141.3039  142.7951  165.7304 C.3     1  UNL1        0.1777
     20 N         140.4304  143.5769  164.7945 N.ar    1  UNL1       -0.1467
     21 N         138.9321  143.5302  164.7408 N.ar    1  UNL1       -0.0451
     22 N         138.4775  144.4671  163.6611 N.ar    1  UNL1       -0.1123
     23 C         139.6950  145.0928  163.0476 C.ar    1  UNL1        0.1838
     24 C         139.7039  146.0931  161.9298 C.3     1  UNL1        0.0776
     25 N         140.9019  144.5426  163.7480 N.ar    1  UNL1       -0.1339
     26 C         138.5307  141.6886  158.2711 C.3     1  UNL1        0.1611
     27 C         135.1194  141.6920  154.2407 C.3     1  UNL1        0.0557
     28 C         135.7964  141.3560  155.5364 C.ar    1  UNL1        0.1008
     29 C         137.0458  141.9925  156.0693 C.ar    1  UNL1        0.0553
     30 C         137.3644  141.3545  157.3890 C.ar    1  UNL1        0.1741
     31 O         136.3119  140.3238  157.6716 O.2     1  UNL1       -0.3563
     32 N         135.3428  140.3247  156.5267 N.ar    1  UNL1       -0.0817
@<TRIPOS>BOND
     1    27    28    1
     2    28    29   ar
     3    29    30   ar
     4    30    26    1
     5    26     1    1
     6     1     2    1
     7     2     3    1
     8     3     4    1
     9     4     5   am
    10     5     6    2
    11     5    10    1
    12    10    11    2
    13    11    12    1
    14    12    13   ar
    15    13    14   ar
    16    14    15   ar
    17    15    16    1
    18    15    17   ar
    19    17    18   ar
    20    18    19    1
    21    19    20    1
    22    20    21   ar
    23    21    22   ar
    24    22    23   ar
    25    23    24    1
    26    23    25   ar
    27     4     7    1
    28     7     8    1
    29     8     9    2
    30    30    31   ar
    31    31    32   ar
    32    32    28   ar
    33     8     1   am
    34    18    12   ar
    35    25    20   ar
@<TRIPOS>MOLECULE
*****
 32 35 0 0 0
SMALL
GASTEIGER

@<TRIPOS>ATOM
      1 N         141.9914  139.5081  160.2684 N.am    1  UNL1       -0.2693
      2 C         141.2557  139.6429  161.5686 C.3     1  UNL1        0.1154
      3 C         141.9966  140.0356  162.8123 C.3     1  UNL1        0.1156
      4 N         143.4732  140.2935  162.7557 N.am    1  UNL1       -0.2660
      5 C         144.2141  140.6861  163.9995 C.2     1  UNL1        0.2496
      6 O         145.6907  140.9440  163.9430 O.2     1  UNL1       -0.2699
      7 C         144.2089  140.1587  161.4555 C.3     1  UNL1        0.1796
      8 C         143.4680  139.7660  160.2118 C.2     1  UNL1        0.2463
      9 O         144.2036  139.6312  158.9115 O.2     1  UNL1       -0.2730
     10 C         143.4785  140.8209  165.2997 C.2     1  UNL1        0.0579
     11 C         143.2499  142.1787  165.8949 C.2     1  UNL1        0.0044
     12 C         142.5142  142.3135  167.1951 C.ar    1  UNL1       -0.0018
     13 C         143.2637  142.2381  168.4922 C.ar    1  UNL1        0.0006
     14 C         142.5280  142.3729  169.7924 C.ar    1  UNL1        0.0114
     15 C         141.0428  142.5831  169.7956 C.ar    1  UNL1        0.0574
     16 CL        140.3071  142.7179  171.0958 Cl      1  UNL1       -0.0823
     17 C         140.2933  142.6585  168.4984 C.ar    1  UNL1        0.0091
     18 C         141.0290  142.5237  167.1982 C.ar    1  UNL1        0.0048
     19 C         140.2795  142.5991  165.9010 C.3     1  UNL1        0.1777
     20 N         139.6295  141.3701  165.3378 N.ar    1  UNL1       -0.1467
     21 N         138.6254  141.3355  164.2241 N.ar    1  UNL1       -0.0451
     22 N         138.2448  139.9040  163.9874 N.ar    1  UNL1       -0.1123
     23 C         139.0138  139.0539  164.9550 C.ar    1  UNL1        0.1838
     24 C         138.9399  137.5600  165.0681 C.3     1  UNL1        0.0776
     25 N         139.8696  139.9601  165.7896 N.ar    1  UNL1       -0.1339
     26 C         141.2505  139.1154  159.0246 C.3     1  UNL1        0.1611
     27 C         137.7011  142.5893  157.2315 C.3     1  UNL1        0.0557
     28 C         138.3169  141.3756  157.8621 C.ar    1  UNL1        0.1008
     29 C         139.7853  141.1006  157.9962 C.ar    1  UNL1        0.0553
     30 C         139.9483  139.7788  158.6863 C.ar    1  UNL1        0.1741
     31 O         138.5806  139.2369  158.9788 O.2     1  UNL1       -0.3563
     32 N         137.5723  140.2238  158.4694 N.ar    1  UNL1       -0.0817
@<TRIPOS>BOND
     1    27    28    1
     2    28    29   ar
     3    29    30   ar
     4    30    26    1
     5    26     1    1
     6     1     2    1
     7     2     3    1
     8     3     4    1
     9     4     5   am
    10     5     6    2
    11     5    10    1
    12    10    11    2
    13    11    12    1
    14    12    13   ar
    15    13    14   ar
    16    14    15   ar
    17    15    16    1
    18    15    17   ar
    19    17    18   ar
    20    18    19    1
    21    19    20    1
    22    20    21   ar
    23    21    22   ar
    24    22    23   ar
    25    23    24    1
    26    23    25   ar
    27     4     7    1
    28     7     8    1
    29     8     9    2
    30    30    31   ar
    31    31    32   ar
    32    32    28   ar
    33     8     1   am
    34    18    12   ar
    35    25    20   ar
@<TRIPOS>MOLECULE
*****
 32 35 0 0 0
SMALL
GASTEIGER

@<TRIPOS>ATOM
      1 N         142.3676  137.5143  156.5808 N.am    1  UNL1       -0.2693
      2 C         142.5190  137.6449  158.0674 C.3     1  UNL1        0.1154
      3 C         141.4351  138.2920  158.8776 C.3     1  UNL1        0.1156
      4 N         140.1999  138.8085  158.2012 N.am    1  UNL1       -0.2660
      5 C         139.1160  139.4557  159.0115 C.2     1  UNL1        0.2496
      6 O         137.8809  139.9722  158.3351 O.2     1  UNL1       -0.2699
      7 C         140.0486  138.6779  156.7146 C.3     1  UNL1        0.1796
      8 C         141.1324  138.0308  155.9044 C.2     1  UNL1        0.2463
      9 O         140.9811  137.9002  154.4178 O.2     1  UNL1       -0.2730
     10 C         139.2674  139.5863  160.4981 C.2     1  UNL1        0.0579
     11 C         138.2675  138.9436  161.4131 C.2     1  UNL1        0.0044
     12 C         138.4188  139.0742  162.8997 C.ar    1  UNL1       -0.0018
     13 C         139.0185  137.9519  163.6940 C.ar    1  UNL1        0.0006
     14 C         139.1698  138.0825  165.1806 C.ar    1  UNL1        0.0114
     15 C         138.7215  139.3355  165.8730 C.ar    1  UNL1        0.0574
     16 CL        138.8728  139.4661  167.3595 Cl      1  UNL1       -0.0823
     17 C         138.1218  140.4577  165.0786 C.ar    1  UNL1        0.0091
     18 C         137.9705  140.3271  163.5920 C.ar    1  UNL1        0.0048
     19 C         137.3708  141.4493  162.7977 C.3     1  UNL1        0.1777
     20 N         138.1614  142.7002  162.5519 N.ar    1  UNL1       -0.1467
     21 N         137.6582  144.1052  162.7027 N.ar    1  UNL1       -0.0451
     22 N         138.7797  145.0391  162.3562 N.ar    1  UNL1       -0.1123
     23 C         139.9761  144.2112  161.9911 C.ar    1  UNL1        0.1838
     24 C         141.3189  144.7365  161.5777 C.3     1  UNL1        0.0776
     25 N         139.5940  142.7657  162.1121 N.ar    1  UNL1       -0.1339
     26 C         143.4515  136.8671  155.7706 C.3     1  UNL1        0.1611
     27 C         142.3973  132.1863  153.5661 C.3     1  UNL1        0.0557
     28 C         142.9266  133.2394  154.4939 C.ar    1  UNL1        0.1008
     29 C         142.7038  134.7175  154.3687 C.ar    1  UNL1        0.0553
     30 C         143.4112  135.3910  155.5072 C.ar    1  UNL1        0.1741
     31 O         144.0711  134.3291  156.3359 O.2     1  UNL1       -0.3563
     32 N         143.7716  132.9994  155.7097 N.ar    1  UNL1       -0.0817
@<TRIPOS>BOND
     1    27    28    1
     2    28    29   ar
     3    29    30   ar
     4    30    26    1
     5    26     1    1
     6     1     2    1
     7     2     3    1
     8     3     4    1
     9     4     5   am
    10     5     6    2
    11     5    10    1
    12    10    11    2
    13    11    12    1
    14    12    13   ar
    15    13    14   ar
    16    14    15   ar
    17    15    16    1
    18    15    17   ar
    19    17    18   ar
    20    18    19    1
    21    19    20    1
    22    20    21   ar
    23    21    22   ar
    24    22    23   ar
    25    23    24    1
    26    23    25   ar
    27     4     7    1
    28     7     8    1
    29     8     9    2
    30    30    31   ar
    31    31    32   ar
    32    32    28   ar
    33     8     1   am
    34    18    12   ar
    35    25    20   ar
@<TRIPOS>MOLECULE
*****
 32 35 0 0 0
SMALL
GASTEIGER

@<TRIPOS>ATOM
      1 N         138.3675  140.1097  163.3420 N.am    1  UNL1       -0.2693
      2 C         138.2912  141.5050  162.7967 C.3     1  UNL1        0.1154
      3 C         138.2896  141.7317  161.3140 C.3     1  UNL1        0.1156
      4 N         138.3643  140.5631  160.3765 N.am    1  UNL1       -0.2660
      5 C         138.3628  140.7899  158.8937 C.2     1  UNL1        0.2496
      6 O         138.4374  139.6213  157.9562 O.2     1  UNL1       -0.2699
      7 C         138.4406  139.1678  160.9217 C.3     1  UNL1        0.1796
      8 C         138.4422  138.9411  162.4045 C.2     1  UNL1        0.2463
      9 O         138.5184  137.5458  162.9498 O.2     1  UNL1       -0.2730
     10 C         138.2865  142.1852  158.3484 C.2     1  UNL1        0.0579
     11 C         139.2882  142.6494  157.3329 C.2     1  UNL1        0.0044
     12 C         139.2119  144.0447  156.7877 C.ar    1  UNL1       -0.0018
     13 C         138.2646  144.3619  155.6687 C.ar    1  UNL1        0.0006
     14 C         138.1884  145.7572  155.1235 C.ar    1  UNL1        0.0114
     15 C         139.0594  146.8353  155.6972 C.ar    1  UNL1        0.0574
     16 CL        138.9831  148.2306  155.1520 Cl      1  UNL1       -0.0823
     17 C         140.0067  146.5181  156.8161 C.ar    1  UNL1        0.0091
     18 C         140.0829  145.1227  157.3614 C.ar    1  UNL1        0.0048
     19 C         141.0302  144.8054  158.4803 C.3     1  UNL1        0.1777
     20 N         140.6410  145.1000  159.8987 N.ar    1  UNL1       -0.1467
     21 N         139.5370  146.0155  160.3381 N.ar    1  UNL1       -0.0451
     22 N         139.5011  146.0121  161.8376 N.ar    1  UNL1       -0.1123
     23 C         140.5830  145.0945  162.3251 C.ar    1  UNL1        0.1838
     24 C         140.9041  144.7934  163.7591 C.3     1  UNL1        0.0776
     25 N         141.2875  144.5308  161.1267 N.ar    1  UNL1       -0.1339
     26 C         138.3691  139.8829  164.8248 C.3     1  UNL1        0.1611
     27 C         143.2612  138.5573  166.3049 C.3     1  UNL1        0.0557
     28 C         141.9162  139.2194  166.2541 C.ar    1  UNL1        0.1008
     29 C         140.8361  138.9459  165.2499 C.ar    1  UNL1        0.0553
     30 C         139.6675  139.8287  165.5738 C.ar    1  UNL1        0.1741
     31 O         140.0254  140.6480  166.7783 O.2     1  UNL1       -0.3563
     32 N         141.4152  140.2714  167.1988 N.ar    1  UNL1       -0.0817
@<TRIPOS>BOND
     1    27    28    1
     2    28    29   ar
     3    29    30   ar
     4    30    26    1
     5    26     1    1
     6     1     2    1
     7     2     3    1
     8     3     4    1
     9     4     5   am
    10     5     6    2
    11     5    10    1
    12    10    11    2
    13    11    12    1
    14    12    13   ar
    15    13    14   ar
    16    14    15   ar
    17    15    16    1
    18    15    17   ar
    19    17    18   ar
    20    18    19    1
    21    19    20    1
    22    20    21   ar
    23    21    22   ar
    24    22    23   ar
    25    23    24    1
    26    23    25   ar
    27     4     7    1
    28     7     8    1
    29     8     9    2
    30    30    31   ar
    31    31    32   ar
    32    32    28   ar
    33     8     1   am
    34    18    12   ar
    35    25    20   ar
@<TRIPOS>MOLECULE
*****
 32 35 0 0 0
SMALL
GASTEIGER

@<TRIPOS>ATOM
      1 N         141.7807  138.0552  159.0471 N.am    1  UNL1       -0.2693
      2 C         142.3719  137.9395  160.4208 C.3     1  UNL1        0.1154
      3 C         141.5238  138.2117  161.6276 C.3     1  UNL1        0.1156
      4 N         140.0845  138.5996  161.4608 N.am    1  UNL1       -0.2660
      5 C         139.2364  138.8719  162.6678 C.2     1  UNL1        0.2496
      6 O         137.7970  139.2598  162.5010 O.2     1  UNL1       -0.2699
      7 C         139.4932  138.7153  160.0872 C.3     1  UNL1        0.1796
      8 C         140.3413  138.4431  158.8803 C.2     1  UNL1        0.2463
      9 O         139.7501  138.5588  157.5066 O.2     1  UNL1       -0.2730
     10 C         139.8276  138.7561  164.0415 C.2     1  UNL1        0.0579
     11 C         140.2308  139.9914  164.7910 C.2     1  UNL1        0.0044
     12 C         140.8220  139.8756  166.1647 C.ar    1  UNL1       -0.0018
     13 C         139.9718  140.1400  167.3719 C.ar    1  UNL1        0.0006
     14 C         140.5630  140.0243  168.7455 C.ar    1  UNL1        0.0114
     15 C         142.0045  139.6442  168.9121 C.ar    1  UNL1        0.0574
     16 CL        142.5958  139.5285  170.2857 Cl      1  UNL1       -0.0823
     17 C         142.8547  139.3798  167.7049 C.ar    1  UNL1        0.0091
     18 C         142.2634  139.4955  166.3312 C.ar    1  UNL1        0.0048
     19 C         143.1136  139.2312  165.1240 C.3     1  UNL1        0.1777
     20 N         143.8382  140.3614  164.4548 N.ar    1  UNL1       -0.1467
     21 N         145.2308  140.3101  163.8998 N.ar    1  UNL1       -0.0451
     22 N         145.5507  141.6583  163.3252 N.ar    1  UNL1       -0.1123
     23 C         144.3557  142.5427  163.5251 C.ar    1  UNL1        0.1838
     24 C         144.2396  143.9769  163.1013 C.3     1  UNL1        0.0776
     25 N         143.2974  141.7412  164.2232 N.ar    1  UNL1       -0.1339
     26 C         142.6288  137.7829  157.8402 C.3     1  UNL1        0.1611
     27 C         141.4149  133.8877  154.4883 C.3     1  UNL1        0.0557
     28 C         142.0160  134.6506  155.6315 C.ar    1  UNL1        0.1008
     29 C         141.7755  136.0965  155.9499 C.ar    1  UNL1        0.0553
     30 C         142.5739  136.4410  157.1722 C.ar    1  UNL1        0.1741
     31 O         143.3077  135.2079  157.6092 O.2     1  UNL1       -0.3563
     32 N         142.9629  134.1014  156.6570 N.ar    1  UNL1       -0.0817
@<TRIPOS>BOND
     1    27    28    1
     2    28    29   ar
     3    29    30   ar
     4    30    26    1
     5    26     1    1
     6     1     2    1
     7     2     3    1
     8     3     4    1
     9     4     5   am
    10     5     6    2
    11     5    10    1
    12    10    11    2
    13    11    12    1
    14    12    13   ar
    15    13    14   ar
    16    14    15   ar
    17    15    16    1
    18    15    17   ar
    19    17    18   ar
    20    18    19    1
    21    19    20    1
    22    20    21   ar
    23    21    22   ar
    24    22    23   ar
    25    23    24    1
    26    23    25   ar
    27     4     7    1
    28     7     8    1
    29     8     9    2
    30    30    31   ar
    31    31    32   ar
    32    32    28   ar
    33     8     1   am
    34    18    12   ar
    35    25    20   ar
@<TRIPOS>MOLECULE
*****
 32 35 0 0 0
SMALL
GASTEIGER

@<TRIPOS>ATOM
      1 N         142.1796  137.2623  157.7333 N.am    1  UNL1       -0.2693
      2 C         142.7869  137.4809  159.0873 C.3     1  UNL1        0.1154
      3 C         142.0447  138.2721  160.1232 C.3     1  UNL1        0.1156
      4 N         140.6953  138.8447  159.8051 N.am    1  UNL1       -0.2660
      5 C         139.9531  139.6359  160.8411 C.2     1  UNL1        0.2496
      6 O         138.6037  140.2085  160.5229 O.2     1  UNL1       -0.2699
      7 C         140.0880  138.6261  158.4510 C.3     1  UNL1        0.1796
      8 C         140.8302  137.8349  157.4151 C.2     1  UNL1        0.2463
      9 O         140.2230  137.6163  156.0610 O.2     1  UNL1       -0.2730
     10 C         140.5603  139.8545  162.1951 C.2     1  UNL1        0.0579
     11 C         140.2215  138.9304  163.3271 C.2     1  UNL1        0.0044
     12 C         140.8287  139.1490  164.6811 C.ar    1  UNL1       -0.0018
     13 C         142.2483  138.7402  164.9413 C.ar    1  UNL1        0.0006
     14 C         142.8555  138.9588  166.2954 C.ar    1  UNL1        0.0114
     15 C         142.0431  139.5862  167.3893 C.ar    1  UNL1        0.0574
     16 CL        142.6504  139.8048  168.7433 Cl      1  UNL1       -0.0823
     17 C         140.6236  139.9949  167.1290 C.ar    1  UNL1        0.0091
     18 C         140.0164  139.7763  165.7749 C.ar    1  UNL1        0.0048
     19 C         138.5968  140.1851  165.5147 C.3     1  UNL1        0.1777
     20 N         138.3005  141.2923  164.5470 N.ar    1  UNL1       -0.1467
     21 N         137.3094  141.2387  163.4224 N.ar    1  UNL1       -0.0451
     22 N         137.3396  142.5607  162.7144 N.ar    1  UNL1       -0.1123
     23 C         138.3495  143.4315  163.4015 C.ar    1  UNL1        0.1838
     24 C         138.7033  144.8390  163.0226 C.3     1  UNL1        0.0776
     25 N         138.9433  142.6475  164.5341 N.ar    1  UNL1       -0.1339
     26 C         142.9218  136.4710  156.6973 C.3     1  UNL1        0.1611
     27 C         141.1765  131.8236  154.8985 C.3     1  UNL1        0.0557
     28 C         141.8691  132.8626  155.7296 C.ar    1  UNL1        0.1008
     29 C         141.8497  134.3427  155.4867 C.ar    1  UNL1        0.0553
     30 C         142.6714  134.9988  156.5564 C.ar    1  UNL1        0.1741
     31 O         143.1987  133.9243  157.4604 O.2     1  UNL1       -0.3563
     32 N         142.7028  132.6040  156.9494 N.ar    1  UNL1       -0.0817
@<TRIPOS>BOND
     1    27    28    1
     2    28    29   ar
     3    29    30   ar
     4    30    26    1
     5    26     1    1
     6     1     2    1
     7     2     3    1
     8     3     4    1
     9     4     5   am
    10     5     6    2
    11     5    10    1
    12    10    11    2
    13    11    12    1
    14    12    13   ar
    15    13    14   ar
    16    14    15   ar
    17    15    16    1
    18    15    17   ar
    19    17    18   ar
    20    18    19    1
    21    19    20    1
    22    20    21   ar
    23    21    22   ar
    24    22    23   ar
    25    23    24    1
    26    23    25   ar
    27     4     7    1
    28     7     8    1
    29     8     9    2
    30    30    31   ar
    31    31    32   ar
    32    32    28   ar
    33     8     1   am
    34    18    12   ar
    35    25    20   ar
@<TRIPOS>MOLECULE
*****
 32 35 0 0 0
SMALL
GASTEIGER

@<TRIPOS>ATOM
      1 N         141.1457  140.2655  165.8111 N.am    1  UNL1       -0.2693
      2 C         140.6062  141.1913  164.7616 C.3     1  UNL1        0.1154
      3 C         141.5453  141.8915  163.8247 C.3     1  UNL1        0.1156
      4 N         143.0239  141.6658  163.9374 N.am    1  UNL1       -0.2660
      5 C         143.9630  142.3660  163.0004 C.2     1  UNL1        0.2496
      6 O         145.4417  142.1403  163.1131 O.2     1  UNL1       -0.2699
      7 C         143.5634  140.7399  164.9869 C.3     1  UNL1        0.1796
      8 C         142.6243  140.0397  165.9238 C.2     1  UNL1        0.2463
      9 O         143.1638  139.1138  166.9734 O.2     1  UNL1       -0.2730
     10 C         143.4235  143.2919  161.9509 C.2     1  UNL1        0.0579
     11 C         142.6246  142.7435  160.8058 C.2     1  UNL1        0.0044
     12 C         142.0851  143.6694  159.7562 C.ar    1  UNL1       -0.0018
     13 C         142.8024  143.8188  158.4474 C.ar    1  UNL1        0.0006
     14 C         142.2629  144.7447  157.3979 C.ar    1  UNL1        0.0114
     15 C         141.0059  145.5212  157.6571 C.ar    1  UNL1        0.0574
     16 CL        140.4664  146.4471  156.6076 Cl      1  UNL1       -0.0823
     17 C         140.2886  145.3718  158.9660 C.ar    1  UNL1        0.0091
     18 C         140.8282  144.4458  160.0155 C.ar    1  UNL1        0.0048
     19 C         140.1108  144.2964  161.3244 C.3     1  UNL1        0.1777
     20 N         139.1346  143.1745  161.5208 N.ar    1  UNL1       -0.1467
     21 N         138.0263  143.1369  162.5309 N.ar    1  UNL1       -0.0451
     22 N         137.3021  141.8325  162.3761 N.ar    1  UNL1       -0.1123
     23 C         137.9628  141.0640  161.2702 C.ar    1  UNL1        0.1838
     24 C         137.5614  139.7046  160.7792 C.3     1  UNL1        0.0776
     25 N         139.0954  141.8934  160.7417 N.ar    1  UNL1       -0.1339
     26 C         140.2066  139.5652  166.7481 C.3     1  UNL1        0.1611
     27 C         139.8696  143.0051  170.7399 C.3     1  UNL1        0.0557
     28 C         139.6591  141.7968  169.8763 C.ar    1  UNL1        0.1008
     29 C         140.3101  141.5367  168.5502 C.ar    1  UNL1        0.0553
     30 C         139.8140  140.2157  168.0414 C.ar    1  UNL1        0.1741
     31 O         138.8564  139.6594  169.0531 O.2     1  UNL1       -0.3563
     32 N         138.7607  140.6366  170.1871 N.ar    1  UNL1       -0.0817
@<TRIPOS>BOND
     1    27    28    1
     2    28    29   ar
     3    29    30   ar
     4    30    26    1
     5    26     1    1
     6     1     2    1
     7     2     3    1
     8     3     4    1
     9     4     5   am
    10     5     6    2
    11     5    10    1
    12    10    11    2
    13    11    12    1
    14    12    13   ar
    15    13    14   ar
    16    14    15   ar
    17    15    16    1
    18    15    17   ar
    19    17    18   ar
    20    18    19    1
    21    19    20    1
    22    20    21   ar
    23    21    22   ar
    24    22    23   ar
    25    23    24    1
    26    23    25   ar
    27     4     7    1
    28     7     8    1
    29     8     9    2
    30    30    31   ar
    31    31    32   ar
    32    32    28   ar
    33     8     1   am
    34    18    12   ar
    35    25    20   ar
