@<TRIPOS>MOLECULE
*****
 38 41 0 0 0
SMALL
GASTEIGER

@<TRIPOS>ATOM
      1 C         141.3339  139.7981  158.5062 C.ar    1  UNL1        0.1383
      2 N         141.2778  138.3972  157.9733 N.ar    1  UNL1       -0.2088
      3 C         142.4332  137.8451  157.1922 C.ar    1  UNL1        0.2000
      4 N         143.6448  138.6939  156.9440 N.ar    1  UNL1       -0.2238
      5 C         143.7009  140.0949  157.4770 C.ar    1  UNL1        0.0887
      6 C         144.9124  140.9438  157.2288 C.ar    1  UNL1        0.0195
      7 C         144.9686  142.3448  157.7618 C.ar    1  UNL1        0.0047
      8 C         143.8131  142.8969  158.5429 C.ar    1  UNL1        0.0371
      9 C         142.6016  142.0481  158.7911 C.ar    1  UNL1        0.1432
     10 C         142.5455  140.6470  158.2581 C.ar    1  UNL1        0.0833
     11 N         140.1785  140.3503  159.2874 N.pl3   1  UNL1       -0.2978
     12 H         139.6875  141.1349  158.9518 H       1  UNL1        0.1536
     13 C         138.9566  138.4206  163.1646 C.ar    1  UNL1        0.1414
     14 C         138.0243  139.3709  162.4734 C.ar    1  UNL1        0.0384
     15 C         138.4316  140.0142  161.1809 C.ar    1  UNL1        0.0178
     16 C         139.7712  139.7071  160.5798 C.ar    1  UNL1        0.0492
     17 C         140.7034  138.7568  161.2711 C.ar    1  UNL1        0.0134
     18 C         140.2961  138.1136  162.5635 C.ar    1  UNL1        0.0139
     19 C         141.2284  137.1632  163.2548 C.3     1  UNL1        0.0343
     20 O         138.5493  137.7774  164.4571 O.3     1  UNL1       -0.4522
     21 C         139.3965  140.6695  169.6453 C.3     1  UNL1        0.0521
     22 C         139.1847  139.9465  168.3482 C.ar    1  UNL1        0.0596
     23 C         140.1684  140.1120  167.2280 C.ar    1  UNL1        0.0179
     24 C         139.9566  139.3890  165.9310 C.ar    1  UNL1        0.0403
     25 C         138.7611  138.5004  165.7541 C.ar    1  UNL1        0.1643
     26 C         137.7774  138.3349  166.8743 C.ar    1  UNL1        0.1358
     27 N         137.9892  139.0580  168.1714 N.ar    1  UNL1       -0.2449
     28 O         141.4462  142.6002  159.5722 O.3     1  UNL1       -0.4698
     29 C         141.5719  143.9269  160.2607 C.3     1  UNL1        0.2413
     30 C         141.0973  145.1747  159.5769 C.3     1  UNL1        0.0574
     31 C         142.1723  144.0058  161.6330 C.2     1  UNL1        0.2660
     32 O         143.6412  144.2630  161.7954 O.2     1  UNL1       -0.2710
     33 N         141.3039  143.8275  162.8430 N.am    1  UNL1       -0.2723
     34 C         141.9042  143.9063  164.2153 C.3     1  UNL1        0.1150
     35 C         139.8351  143.5703  162.6806 C.3     1  UNL1        0.1252
     36 C         138.8426  144.6355  163.0419 C.3     1  UNL1        0.1586
     37 O         137.4345  144.5529  162.5318 O.3     1  UNL1       -0.3802
     38 H         137.4339  144.6511  161.5668 H       1  UNL1        0.2105
@<TRIPOS>BOND
     1    21    22    1
     2    22    23   ar
     3    23    24   ar
     4    24    25   ar
     5    25    20    1
     6    20    13    1
     7    13    14   ar
     8    14    15   ar
     9    15    16   ar
    10    16    11    1
    11    11     1    1
    12     1     2   ar
    13     2     3   ar
    14     3     4   ar
    15     4     5   ar
    16     5     6   ar
    17     6     7   ar
    18     7     8   ar
    19     8     9   ar
    20     9    28    1
    21    28    29    1
    22    29    30    1
    23    29    31    1
    24    31    32    2
    25    31    33   am
    26    33    34    1
    27    33    35    1
    28    35    36    1
    29    36    37    1
    30     9    10   ar
    31    16    17   ar
    32    17    18   ar
    33    18    19    1
    34    25    26   ar
    35    26    27   ar
    36    27    22   ar
    37    18    13   ar
    38    10     1   ar
    39    10     5   ar
    40    11    12    1
    41    37    38    1
@<TRIPOS>MOLECULE
*****
 38 41 0 0 0
SMALL
GASTEIGER

@<TRIPOS>ATOM
      1 C         139.7938  139.8920  167.8875 C.ar    1  UNL1        0.1383
      2 N         138.6550  139.6357  168.8296 N.ar    1  UNL1       -0.2088
      3 C         138.6503  140.2676  170.1899 C.ar    1  UNL1        0.2000
      4 N         139.7843  141.1559  170.6082 N.ar    1  UNL1       -0.2238
      5 C         140.9230  141.4123  169.6661 C.ar    1  UNL1        0.0887
      6 C         142.0570  142.3006  170.0844 C.ar    1  UNL1        0.0195
      7 C         143.1958  142.5569  169.1424 C.ar    1  UNL1        0.0047
      8 C         143.2005  141.9250  167.7819 C.ar    1  UNL1        0.0371
      9 C         142.0666  141.0367  167.3637 C.ar    1  UNL1        0.1432
     10 C         140.9278  140.7803  168.3058 C.ar    1  UNL1        0.0833
     11 N         139.7986  139.2601  166.5271 N.pl3   1  UNL1       -0.2978
     12 H         140.1905  138.3658  166.4011 H       1  UNL1        0.1536
     13 C         138.0215  141.4520  163.0218 C.ar    1  UNL1        0.1414
     14 C         138.4289  140.0154  162.8797 C.ar    1  UNL1        0.0384
     15 C         139.0212  139.2847  164.0481 C.ar    1  UNL1        0.0178
     16 C         139.2062  139.9907  165.3586 C.ar    1  UNL1        0.0492
     17 C         138.7988  141.4273  165.5007 C.ar    1  UNL1        0.0134
     18 C         138.2064  142.1579  164.3322 C.ar    1  UNL1        0.0139
     19 C         137.7990  143.5946  164.4743 C.3     1  UNL1        0.0343
     20 O         137.4291  142.1827  161.8533 O.3     1  UNL1       -0.4522
     21 C         141.0169  144.8282  157.8373 C.3     1  UNL1        0.0521
     22 C         140.1200  144.1668  158.8413 C.ar    1  UNL1        0.0596
     23 C         139.2990  142.9759  158.4439 C.ar    1  UNL1        0.0179
     24 C         138.4021  142.3146  159.4479 C.ar    1  UNL1        0.0403
     25 C         138.3260  142.8440  160.8493 C.ar    1  UNL1        0.1643
     26 C         139.1470  144.0349  161.2467 C.ar    1  UNL1        0.1358
     27 N         140.0439  144.6963  160.2427 N.ar    1  UNL1       -0.2449
     28 O         142.0713  140.4047  166.0033 O.3     1  UNL1       -0.4698
     29 C         143.3414  139.8331  165.4463 C.3     1  UNL1        0.2413
     30 C         143.9039  138.5631  166.0124 C.3     1  UNL1        0.0574
     31 C         144.0489  140.5316  164.3231 C.2     1  UNL1        0.2660
     32 O         145.2105  141.4346  164.6148 O.2     1  UNL1       -0.2710
     33 N         143.5947  140.3270  162.9082 N.am    1  UNL1       -0.2723
     34 C         144.3022  141.0254  161.7850 C.3     1  UNL1        0.1150
     35 C         142.4331  139.4239  162.6166 C.3     1  UNL1        0.1252
     36 C         142.6457  137.9441  162.4944 C.3     1  UNL1        0.1586
     37 O         141.8833  137.1590  161.4686 O.3     1  UNL1       -0.3802
     38 H         140.9389  137.1696  161.6896 H       1  UNL1        0.2105
@<TRIPOS>BOND
     1    21    22    1
     2    22    23   ar
     3    23    24   ar
     4    24    25   ar
     5    25    20    1
     6    20    13    1
     7    13    14   ar
     8    14    15   ar
     9    15    16   ar
    10    16    11    1
    11    11     1    1
    12     1     2   ar
    13     2     3   ar
    14     3     4   ar
    15     4     5   ar
    16     5     6   ar
    17     6     7   ar
    18     7     8   ar
    19     8     9   ar
    20     9    28    1
    21    28    29    1
    22    29    30    1
    23    29    31    1
    24    31    32    2
    25    31    33   am
    26    33    34    1
    27    33    35    1
    28    35    36    1
    29    36    37    1
    30     9    10   ar
    31    16    17   ar
    32    17    18   ar
    33    18    19    1
    34    25    26   ar
    35    26    27   ar
    36    27    22   ar
    37    18    13   ar
    38    10     1   ar
    39    10     5   ar
    40    11    12    1
    41    37    38    1
@<TRIPOS>MOLECULE
*****
 38 41 0 0 0
SMALL
GASTEIGER

@<TRIPOS>ATOM
      1 C         143.5722  143.1993  158.6272 C.ar    1  UNL1        0.1383
      2 N         144.4289  142.2885  157.7986 N.ar    1  UNL1       -0.2088
      3 C         144.2296  142.2168  156.3137 C.ar    1  UNL1        0.2000
      4 N         143.1737  143.0559  155.6573 N.ar    1  UNL1       -0.2238
      5 C         142.3170  143.9667  156.4858 C.ar    1  UNL1        0.0887
      6 C         141.2611  144.8059  155.8294 C.ar    1  UNL1        0.0195
      7 C         140.4044  145.7167  156.6579 C.ar    1  UNL1        0.0047
      8 C         140.6037  145.7884  158.1429 C.ar    1  UNL1        0.0371
      9 C         141.6596  144.9493  158.7994 C.ar    1  UNL1        0.1432
     10 C         142.5163  144.0384  157.9707 C.ar    1  UNL1        0.0833
     11 N         143.7715  143.2710  160.1122 N.pl3   1  UNL1       -0.2978
     12 H         144.1061  144.1000  160.5245 H       1  UNL1        0.1536
     13 C         142.8397  139.6968  162.6825 C.ar    1  UNL1        0.1414
     14 C         141.9784  140.0120  161.4955 C.ar    1  UNL1        0.0384
     15 C         142.2890  141.2034  160.6387 C.ar    1  UNL1        0.0178
     16 C         143.4609  142.0796  160.9690 C.ar    1  UNL1        0.0492
     17 C         144.3220  141.7644  162.1560 C.ar    1  UNL1        0.0134
     18 C         144.0114  140.5730  163.0127 C.ar    1  UNL1        0.0139
     19 C         144.8727  140.2579  164.1998 C.3     1  UNL1        0.0343
     20 O         142.5290  138.5054  163.5393 O.3     1  UNL1       -0.4522
     21 C         137.6222  138.4906  166.9922 C.3     1  UNL1        0.0521
     22 C         138.8489  138.4943  166.1290 C.ar    1  UNL1        0.0596
     23 C         140.0071  139.3823  166.4754 C.ar    1  UNL1        0.0179
     24 C         141.2338  139.3860  165.6122 C.ar    1  UNL1        0.0403
     25 C         141.3023  138.5017  164.4025 C.ar    1  UNL1        0.1643
     26 C         140.1441  137.6137  164.0560 C.ar    1  UNL1        0.1358
     27 N         138.9174  137.6100  164.9193 N.ar    1  UNL1       -0.2449
     28 O         141.8589  145.0210  160.2843 O.3     1  UNL1       -0.4698
     29 C         140.6710  145.0606  161.1994 C.3     1  UNL1        0.2413
     30 C         139.7865  146.2717  161.2282 C.3     1  UNL1        0.0574
     31 C         140.3677  143.8891  162.0857 C.2     1  UNL1        0.2660
     32 O         139.4886  142.7800  161.5883 O.2     1  UNL1       -0.2710
     33 N         140.9433  143.8266  163.4694 N.am    1  UNL1       -0.2723
     34 C         140.6400  142.6551  164.3558 C.3     1  UNL1        0.1150
     35 C         141.8223  144.9356  163.9668 C.3     1  UNL1        0.1252
     36 C         143.3097  144.8490  163.7932 C.3     1  UNL1        0.1586
     37 O         143.9385  145.2608  162.4951 O.3     1  UNL1       -0.3802
     38 H         143.6575  144.6537  161.7928 H       1  UNL1        0.2105
@<TRIPOS>BOND
     1    21    22    1
     2    22    23   ar
     3    23    24   ar
     4    24    25   ar
     5    25    20    1
     6    20    13    1
     7    13    14   ar
     8    14    15   ar
     9    15    16   ar
    10    16    11    1
    11    11     1    1
    12     1     2   ar
    13     2     3   ar
    14     3     4   ar
    15     4     5   ar
    16     5     6   ar
    17     6     7   ar
    18     7     8   ar
    19     8     9   ar
    20     9    28    1
    21    28    29    1
    22    29    30    1
    23    29    31    1
    24    31    32    2
    25    31    33   am
    26    33    34    1
    27    33    35    1
    28    35    36    1
    29    36    37    1
    30     9    10   ar
    31    16    17   ar
    32    17    18   ar
    33    18    19    1
    34    25    26   ar
    35    26    27   ar
    36    27    22   ar
    37    18    13   ar
    38    10     1   ar
    39    10     5   ar
    40    11    12    1
    41    37    38    1
@<TRIPOS>MOLECULE
*****
 38 41 0 0 0
SMALL
GASTEIGER

@<TRIPOS>ATOM
      1 C         139.4809  139.2409  165.8513 C.ar    1  UNL1        0.1383
      2 N         138.2568  138.3793  165.9471 N.ar    1  UNL1       -0.2088
      3 C         137.4859  138.3119  167.2320 C.ar    1  UNL1        0.2000
      4 N         137.9390  139.1060  168.4211 N.ar    1  UNL1       -0.2238
      5 C         139.1631  139.9676  168.3253 C.ar    1  UNL1        0.0887
      6 C         139.6163  140.7618  169.5144 C.ar    1  UNL1        0.0195
      7 C         140.8404  141.6234  169.4186 C.ar    1  UNL1        0.0047
      8 C         141.6114  141.6908  168.1336 C.ar    1  UNL1        0.0371
      9 C         141.1582  140.8967  166.9445 C.ar    1  UNL1        0.1432
     10 C         139.9340  140.0350  167.0404 C.ar    1  UNL1        0.0833
     11 N         140.2519  139.3083  164.5663 N.pl3   1  UNL1       -0.2978
     12 H         141.0762  138.7810  164.4586 H       1  UNL1        0.1536
     13 C         138.7968  141.9212  161.2039 C.ar    1  UNL1        0.1414
     14 C         139.6174  140.7016  160.9048 C.ar    1  UNL1        0.0384
     15 C         140.1024  139.8306  162.0256 C.ar    1  UNL1        0.0178
     16 C         139.7669  140.1793  163.4455 C.ar    1  UNL1        0.0492
     17 C         138.9463  141.3988  163.7445 C.ar    1  UNL1        0.0134
     18 C         138.4613  142.2698  162.6237 C.ar    1  UNL1        0.0139
     19 C         137.6408  143.4893  162.9228 C.3     1  UNL1        0.0343
     20 O         138.3118  142.7921  160.0831 O.3     1  UNL1       -0.4522
     21 C         142.2168  145.0219  156.1109 C.3     1  UNL1        0.0521
     22 C         141.2406  144.4645  157.1040 C.ar    1  UNL1        0.0596
     23 C         141.3161  144.8787  158.5436 C.ar    1  UNL1        0.0179
     24 C         140.3399  144.3213  159.5367 C.ar    1  UNL1        0.0403
     25 C         139.2880  143.3496  159.0901 C.ar    1  UNL1        0.1643
     26 C         139.2125  142.9353  157.6504 C.ar    1  UNL1        0.1358
     27 N         140.1888  143.4928  156.6573 N.ar    1  UNL1       -0.2449
     28 O         141.9291  140.9641  165.6596 O.3     1  UNL1       -0.4698
     29 C         142.4258  142.2851  165.1513 C.3     1  UNL1        0.2413
     30 C         141.4726  143.4315  164.9859 C.3     1  UNL1        0.0574
     31 C         143.8756  142.4598  164.8085 C.2     1  UNL1        0.2660
     32 O         144.6995  143.4830  165.5326 O.2     1  UNL1       -0.2710
     33 N         144.5015  141.6113  163.7416 N.am    1  UNL1       -0.2723
     34 C         145.9513  141.7859  163.3988 C.3     1  UNL1        0.1150
     35 C         143.6776  140.5881  163.0176 C.3     1  UNL1        0.1252
     36 C         143.8669  139.1291  163.3101 C.3     1  UNL1        0.1586
     37 O         142.9148  138.4179  164.2253 O.3     1  UNL1       -0.3802
     38 H         143.0008  138.7759  165.1228 H       1  UNL1        0.2105
@<TRIPOS>BOND
     1    21    22    1
     2    22    23   ar
     3    23    24   ar
     4    24    25   ar
     5    25    20    1
     6    20    13    1
     7    13    14   ar
     8    14    15   ar
     9    15    16   ar
    10    16    11    1
    11    11     1    1
    12     1     2   ar
    13     2     3   ar
    14     3     4   ar
    15     4     5   ar
    16     5     6   ar
    17     6     7   ar
    18     7     8   ar
    19     8     9   ar
    20     9    28    1
    21    28    29    1
    22    29    30    1
    23    29    31    1
    24    31    32    2
    25    31    33   am
    26    33    34    1
    27    33    35    1
    28    35    36    1
    29    36    37    1
    30     9    10   ar
    31    16    17   ar
    32    17    18   ar
    33    18    19    1
    34    25    26   ar
    35    26    27   ar
    36    27    22   ar
    37    18    13   ar
    38    10     1   ar
    39    10     5   ar
    40    11    12    1
    41    37    38    1
@<TRIPOS>MOLECULE
*****
 38 41 0 0 0
SMALL
GASTEIGER

@<TRIPOS>ATOM
      1 C         139.3584  141.4625  160.5050 C.ar    1  UNL1        0.1383
      2 N         140.0226  142.2298  159.4004 N.ar    1  UNL1       -0.2088
      3 C         140.1312  143.7234  159.4848 C.ar    1  UNL1        0.2000
      4 N         139.5756  144.4498  160.6737 N.ar    1  UNL1       -0.2238
      5 C         138.9114  143.6826  161.7783 C.ar    1  UNL1        0.0887
      6 C         138.3558  144.4090  162.9673 C.ar    1  UNL1        0.0195
      7 C         137.6916  143.6418  164.0718 C.ar    1  UNL1        0.0047
      8 C         137.5829  142.1481  163.9875 C.ar    1  UNL1        0.0371
      9 C         138.1386  141.4216  162.7986 C.ar    1  UNL1        0.1432
     10 C         138.8028  142.1890  161.6939 C.ar    1  UNL1        0.0833
     11 N         139.2498  139.9688  160.4206 N.pl3   1  UNL1       -0.2978
     12 H         138.6588  139.4825  161.0399 H       1  UNL1        0.1536
     13 C         141.6250  137.7107  157.3369 C.ar    1  UNL1        0.1414
     14 C         142.2632  138.1012  158.6371 C.ar    1  UNL1        0.0384
     15 C         141.4715  138.8539  159.6650 C.ar    1  UNL1        0.0178
     16 C         140.0415  139.2161  159.3927 C.ar    1  UNL1        0.0492
     17 C         139.4034  138.8257  158.0927 C.ar    1  UNL1        0.0134
     18 C         140.1951  138.0730  157.0647 C.ar    1  UNL1        0.0139
     19 C         139.5569  137.6825  155.7646 C.3     1  UNL1        0.0343
     20 O         142.4168  136.9581  156.3090 O.3     1  UNL1       -0.4522
     21 C         142.7744  130.9752  156.5875 C.3     1  UNL1        0.0521
     22 C         142.6850  132.4709  156.5179 C.ar    1  UNL1        0.0596
     23 C         141.7263  133.1214  155.5652 C.ar    1  UNL1        0.0179
     24 C         141.6368  134.6171  155.4955 C.ar    1  UNL1        0.0403
     25 C         142.5062  135.4624  156.3786 C.ar    1  UNL1        0.1643
     26 C         143.4649  134.8119  157.3314 C.ar    1  UNL1        0.1358
     27 N         143.5543  133.3161  157.4010 N.ar    1  UNL1       -0.2449
     28 O         138.0300  139.9280  162.7142 O.3     1  UNL1       -0.4698
     29 C         139.0083  139.0620  163.4511 C.3     1  UNL1        0.2413
     30 C         139.1177  137.6035  163.1186 C.3     1  UNL1        0.0574
     31 C         139.8772  139.6547  164.5206 C.2     1  UNL1        0.2660
     32 O         141.2479  140.1595  164.1791 O.2     1  UNL1       -0.2710
     33 N         139.3755  139.7426  165.9314 N.am    1  UNL1       -0.2723
     34 C         140.2445  140.3353  167.0009 C.3     1  UNL1        0.1150
     35 C         138.0049  139.2379  166.2728 C.3     1  UNL1        0.1252
     36 C         137.8156  137.8127  166.7009 C.3     1  UNL1        0.1586
     37 O         136.6376  137.4346  167.5490 O.3     1  UNL1       -0.3802
     38 H         136.7169  137.8562  168.4189 H       1  UNL1        0.2105
@<TRIPOS>BOND
     1    21    22    1
     2    22    23   ar
     3    23    24   ar
     4    24    25   ar
     5    25    20    1
     6    20    13    1
     7    13    14   ar
     8    14    15   ar
     9    15    16   ar
    10    16    11    1
    11    11     1    1
    12     1     2   ar
    13     2     3   ar
    14     3     4   ar
    15     4     5   ar
    16     5     6   ar
    17     6     7   ar
    18     7     8   ar
    19     8     9   ar
    20     9    28    1
    21    28    29    1
    22    29    30    1
    23    29    31    1
    24    31    32    2
    25    31    33   am
    26    33    34    1
    27    33    35    1
    28    35    36    1
    29    36    37    1
    30     9    10   ar
    31    16    17   ar
    32    17    18   ar
    33    18    19    1
    34    25    26   ar
    35    26    27   ar
    36    27    22   ar
    37    18    13   ar
    38    10     1   ar
    39    10     5   ar
    40    11    12    1
    41    37    38    1
@<TRIPOS>MOLECULE
*****
 38 41 0 0 0
SMALL
GASTEIGER

@<TRIPOS>ATOM
      1 C         138.9477  140.2642  165.5840 C.ar    1  UNL1        0.1383
      2 N         138.0550  139.0631  165.6846 N.ar    1  UNL1       -0.2088
      3 C         137.7227  138.4860  167.0286 C.ar    1  UNL1        0.2000
      4 N         138.2832  139.1101  168.2722 N.ar    1  UNL1       -0.2238
      5 C         139.1760  140.3113  168.1716 C.ar    1  UNL1        0.0887
      6 C         139.7365  140.9354  169.4151 C.ar    1  UNL1        0.0195
      7 C         140.6293  142.1365  169.3146 C.ar    1  UNL1        0.0047
      8 C         140.9616  142.7137  167.9704 C.ar    1  UNL1        0.0371
      9 C         140.4011  142.0895  166.7269 C.ar    1  UNL1        0.1432
     10 C         139.5082  140.8883  166.8275 C.ar    1  UNL1        0.0833
     11 N         139.2800  140.8413  164.2399 N.pl3   1  UNL1       -0.2978
     12 H         138.9794  141.7492  164.0060 H       1  UNL1        0.1536
     13 C         141.6510  138.4230  161.2768 C.ar    1  UNL1        0.1414
     14 C         140.1811  138.6355  161.0662 C.ar    1  UNL1        0.0384
     15 C         139.3908  139.4416  162.0539 C.ar    1  UNL1        0.0178
     16 C         140.0704  140.0352  163.2522 C.ar    1  UNL1        0.0492
     17 C         141.5402  139.8227  163.4627 C.ar    1  UNL1        0.0134
     18 C         142.3305  139.0166  162.4750 C.ar    1  UNL1        0.0139
     19 C         143.8004  138.8041  162.6856 C.3     1  UNL1        0.0343
     20 O         142.4413  137.6168  160.2891 O.3     1  UNL1       -0.4522
     21 C         144.2139  140.1016  155.1234 C.3     1  UNL1        0.0521
     22 C         143.7707  139.4804  156.4148 C.ar    1  UNL1        0.0596
     23 C         143.8086  140.2798  157.6835 C.ar    1  UNL1        0.0179
     24 C         143.3654  139.6587  158.9749 C.ar    1  UNL1        0.0403
     25 C         142.8844  138.2380  158.9977 C.ar    1  UNL1        0.1643
     26 C         142.8466  137.4386  157.7290 C.ar    1  UNL1        0.1358
     27 N         143.2897  138.0598  156.4376 N.ar    1  UNL1       -0.2449
     28 O         140.7333  142.6666  165.3828 O.3     1  UNL1       -0.4698
     29 C         140.1298  143.9722  164.9572 C.3     1  UNL1        0.2413
     30 C         138.9851  144.5569  165.7304 C.3     1  UNL1        0.0574
     31 C         140.6710  144.6932  163.7583 C.2     1  UNL1        0.2660
     32 O         142.0690  145.2368  163.7779 O.2     1  UNL1       -0.2710
     33 N         139.8144  144.8706  162.5399 N.am    1  UNL1       -0.2723
     34 C         140.3556  145.5916  161.3410 C.3     1  UNL1        0.1150
     35 C         138.4165  144.3270  162.5203 C.3     1  UNL1        0.1252
     36 C         138.1280  143.0239  161.8356 C.3     1  UNL1        0.1586
     37 O         137.1752  142.0456  162.4560 O.3     1  UNL1       -0.3802
     38 H         137.5488  141.7130  163.2871 H       1  UNL1        0.2105
@<TRIPOS>BOND
     1    21    22    1
     2    22    23   ar
     3    23    24   ar
     4    24    25   ar
     5    25    20    1
     6    20    13    1
     7    13    14   ar
     8    14    15   ar
     9    15    16   ar
    10    16    11    1
    11    11     1    1
    12     1     2   ar
    13     2     3   ar
    14     3     4   ar
    15     4     5   ar
    16     5     6   ar
    17     6     7   ar
    18     7     8   ar
    19     8     9   ar
    20     9    28    1
    21    28    29    1
    22    29    30    1
    23    29    31    1
    24    31    32    2
    25    31    33   am
    26    33    34    1
    27    33    35    1
    28    35    36    1
    29    36    37    1
    30     9    10   ar
    31    16    17   ar
    32    17    18   ar
    33    18    19    1
    34    25    26   ar
    35    26    27   ar
    36    27    22   ar
    37    18    13   ar
    38    10     1   ar
    39    10     5   ar
    40    11    12    1
    41    37    38    1
@<TRIPOS>MOLECULE
*****
 38 41 0 0 0
SMALL
GASTEIGER

@<TRIPOS>ATOM
      1 C         139.3446  141.0871  160.7256 C.ar    1  UNL1        0.1383
      2 N         139.8197  141.8822  159.5458 N.ar    1  UNL1       -0.2088
      3 C         139.7942  143.3812  159.5923 C.ar    1  UNL1        0.2000
      4 N         139.2936  144.0851  160.8187 N.ar    1  UNL1       -0.2238
      5 C         138.8185  143.2900  161.9985 C.ar    1  UNL1        0.0887
      6 C         138.3179  143.9939  163.2249 C.ar    1  UNL1        0.0195
      7 C         137.8428  143.1988  164.4047 C.ar    1  UNL1        0.0047
      8 C         137.8684  141.6996  164.3582 C.ar    1  UNL1        0.0371
      9 C         138.3689  140.9958  163.1318 C.ar    1  UNL1        0.1432
     10 C         138.8440  141.7910  161.9520 C.ar    1  UNL1        0.0833
     11 N         139.3701  139.5880  160.6791 N.pl3   1  UNL1       -0.2978
     12 H         138.8710  139.0662  161.3483 H       1  UNL1        0.1536
     13 C         141.7282  137.4759  157.4809 C.ar    1  UNL1        0.1414
     14 C         142.3914  137.8631  158.7695 C.ar    1  UNL1        0.0384
     15 C         141.6054  138.5671  159.8356 C.ar    1  UNL1        0.0178
     16 C         140.1562  138.8840  159.6131 C.ar    1  UNL1        0.0492
     17 C         139.4931  138.4968  158.3245 C.ar    1  UNL1        0.0134
     18 C         140.2791  137.7928  157.2584 C.ar    1  UNL1        0.0139
     19 C         139.6159  137.4057  155.9699 C.3     1  UNL1        0.0343
     20 O         142.5143  136.7719  156.4148 O.3     1  UNL1       -0.4522
     21 C         142.7473  130.7772  156.3243 C.3     1  UNL1        0.0521
     22 C         142.6891  132.2759  156.3469 C.ar    1  UNL1        0.0596
     23 C         141.7902  133.0060  155.3935 C.ar    1  UNL1        0.0179
     24 C         141.7320  134.5046  155.4161 C.ar    1  UNL1        0.0403
     25 C         142.5725  135.2733  156.3922 C.ar    1  UNL1        0.1643
     26 C         143.4714  134.5432  157.3456 C.ar    1  UNL1        0.1358
     27 N         143.5296  133.0444  157.3230 N.ar    1  UNL1       -0.2449
     28 O         138.3945  139.4967  163.0853 O.3     1  UNL1       -0.4698
     29 C         139.2571  138.7311  164.0444 C.3     1  UNL1        0.2413
     30 C         138.7433  138.3981  165.4137 C.3     1  UNL1        0.0574
     31 C         140.6336  138.2987  163.6342 C.2     1  UNL1        0.2660
     32 O         140.8313  136.9817  162.9438 O.2     1  UNL1       -0.2710
     33 N         141.8122  139.1831  163.9142 N.am    1  UNL1       -0.2723
     34 C         143.1887  138.7506  163.5040 C.3     1  UNL1        0.1150
     35 C         141.6144  140.5000  164.6045 C.3     1  UNL1        0.1252
     36 C         141.9139  140.6319  166.0684 C.3     1  UNL1        0.1586
     37 O         141.7628  139.4462  166.9747 O.3     1  UNL1       -0.3802
     38 H         140.8277  139.1929  167.0225 H       1  UNL1        0.2105
@<TRIPOS>BOND
     1    21    22    1
     2    22    23   ar
     3    23    24   ar
     4    24    25   ar
     5    25    20    1
     6    20    13    1
     7    13    14   ar
     8    14    15   ar
     9    15    16   ar
    10    16    11    1
    11    11     1    1
    12     1     2   ar
    13     2     3   ar
    14     3     4   ar
    15     4     5   ar
    16     5     6   ar
    17     6     7   ar
    18     7     8   ar
    19     8     9   ar
    20     9    28    1
    21    28    29    1
    22    29    30    1
    23    29    31    1
    24    31    32    2
    25    31    33   am
    26    33    34    1
    27    33    35    1
    28    35    36    1
    29    36    37    1
    30     9    10   ar
    31    16    17   ar
    32    17    18   ar
    33    18    19    1
    34    25    26   ar
    35    26    27   ar
    36    27    22   ar
    37    18    13   ar
    38    10     1   ar
    39    10     5   ar
    40    11    12    1
    41    37    38    1
@<TRIPOS>MOLECULE
*****
 38 41 0 0 0
SMALL
GASTEIGER

@<TRIPOS>ATOM
      1 C         142.6294  140.6636  165.2096 C.ar    1  UNL1        0.1383
      2 N         143.4391  139.4082  165.0742 N.ar    1  UNL1       -0.2088
      3 C         143.6402  138.5137  166.2614 C.ar    1  UNL1        0.2000
      4 N         143.0314  138.8746  167.5840 N.ar    1  UNL1       -0.2238
      5 C         142.2217  140.1299  167.7194 C.ar    1  UNL1        0.0887
      6 C         141.6130  140.4907  169.0420 C.ar    1  UNL1        0.0195
      7 C         140.8032  141.7460  169.1774 C.ar    1  UNL1        0.0047
      8 C         140.6021  142.6406  167.9902 C.ar    1  UNL1        0.0371
      9 C         141.2108  142.2798  166.6676 C.ar    1  UNL1        0.1432
     10 C         142.0206  141.0244  166.5322 C.ar    1  UNL1        0.0833
     11 N         142.4283  141.5582  164.0224 N.pl3   1  UNL1       -0.2978
     12 H         142.6741  142.5100  164.0760 H       1  UNL1        0.1536
     13 C         140.7012  139.8912  160.2160 C.ar    1  UNL1        0.1414
     14 C         141.6745  141.0314  160.1618 C.ar    1  UNL1        0.0384
     15 C         142.2502  141.5870  161.4306 C.ar    1  UNL1        0.0178
     16 C         141.8526  141.0025  162.7536 C.ar    1  UNL1        0.0492
     17 C         140.8794  139.8624  162.8078 C.ar    1  UNL1        0.0134
     18 C         140.3037  139.3068  161.5390 C.ar    1  UNL1        0.0139
     19 C         139.3304  138.1666  161.5933 C.3     1  UNL1        0.0343
     20 O         140.1255  139.3356  158.9473 O.3     1  UNL1       -0.4522
     21 C         143.2319  135.3200  155.7496 C.3     1  UNL1        0.0521
     22 C         142.4553  136.3239  156.5490 C.ar    1  UNL1        0.0596
     23 C         141.0324  136.6316  156.1876 C.ar    1  UNL1        0.0179
     24 C         140.2558  137.6354  156.9870 C.ar    1  UNL1        0.0403
     25 C         140.9021  138.3317  158.1479 C.ar    1  UNL1        0.1643
     26 C         142.3250  138.0240  158.5093 C.ar    1  UNL1        0.1358
     27 N         143.1016  137.0200  157.7098 N.ar    1  UNL1       -0.2449
     28 O         141.0098  143.1743  165.4805 O.3     1  UNL1       -0.4698
     29 C         139.6264  143.6035  165.0905 C.3     1  UNL1        0.2413
     30 C         138.9742  144.7587  165.7905 C.3     1  UNL1        0.0574
     31 C         138.8952  142.8774  164.0004 C.2     1  UNL1        0.2660
     32 O         137.9558  141.7593  164.3432 O.2     1  UNL1       -0.2710
     33 N         139.1034  143.2694  162.5676 N.am    1  UNL1       -0.2723
     34 C         138.3723  142.5433  161.4776 C.3     1  UNL1        0.1150
     35 C         140.0428  144.3874  162.2249 C.3     1  UNL1        0.1252
     36 C         139.5443  145.8018  162.1902 C.3     1  UNL1        0.1586
     37 O         139.2291  146.4539  160.8767 O.3     1  UNL1       -0.3802
     38 H         140.0453  146.5568  160.3627 H       1  UNL1        0.2105
@<TRIPOS>BOND
     1    21    22    1
     2    22    23   ar
     3    23    24   ar
     4    24    25   ar
     5    25    20    1
     6    20    13    1
     7    13    14   ar
     8    14    15   ar
     9    15    16   ar
    10    16    11    1
    11    11     1    1
    12     1     2   ar
    13     2     3   ar
    14     3     4   ar
    15     4     5   ar
    16     5     6   ar
    17     6     7   ar
    18     7     8   ar
    19     8     9   ar
    20     9    28    1
    21    28    29    1
    22    29    30    1
    23    29    31    1
    24    31    32    2
    25    31    33   am
    26    33    34    1
    27    33    35    1
    28    35    36    1
    29    36    37    1
    30     9    10   ar
    31    16    17   ar
    32    17    18   ar
    33    18    19    1
    34    25    26   ar
    35    26    27   ar
    36    27    22   ar
    37    18    13   ar
    38    10     1   ar
    39    10     5   ar
    40    11    12    1
    41    37    38    1
@<TRIPOS>MOLECULE
*****
 38 41 0 0 0
SMALL
GASTEIGER

@<TRIPOS>ATOM
      1 C         139.7378  140.4285  158.5129 C.ar    1  UNL1        0.1383
      2 N         138.5696  140.0304  157.6603 N.ar    1  UNL1       -0.2088
      3 C         137.8263  141.0694  156.8742 C.ar    1  UNL1        0.2000
      4 N         138.2512  142.5064  156.9407 N.ar    1  UNL1       -0.2238
      5 C         139.4193  142.9045  157.7933 C.ar    1  UNL1        0.0887
      6 C         139.8442  144.3415  157.8597 C.ar    1  UNL1        0.0195
      7 C         141.0123  144.7396  158.7123 C.ar    1  UNL1        0.0047
      8 C         141.7557  143.7006  159.4985 C.ar    1  UNL1        0.0371
      9 C         141.3308  142.2635  159.4320 C.ar    1  UNL1        0.1432
     10 C         140.1626  141.8655  158.5794 C.ar    1  UNL1        0.0833
     11 N         140.4811  139.3895  159.2991 N.pl3   1  UNL1       -0.2978
     12 H         141.3076  138.9960  158.9368 H       1  UNL1        0.1536
     13 C         138.9331  138.0712  163.3136 C.ar    1  UNL1        0.1414
     14 C         138.0969  138.9616  162.4428 C.ar    1  UNL1        0.0384
     15 C         138.6129  139.4010  161.1046 C.ar    1  UNL1        0.0178
     16 C         139.9651  138.9501  160.6372 C.ar    1  UNL1        0.0492
     17 C         140.8012  138.0598  161.5080 C.ar    1  UNL1        0.0134
     18 C         140.2852  137.6204  162.8462 C.ar    1  UNL1        0.0139
     19 C         141.1214  136.7301  163.7170 C.3     1  UNL1        0.0343
     20 O         138.4171  137.6318  164.6517 O.3     1  UNL1       -0.4522
     21 C         139.6092  140.8928  169.5450 C.3     1  UNL1        0.0521
     22 C         139.3112  140.0776  168.3217 C.ar    1  UNL1        0.0596
     23 C         140.2448  140.1170  167.1483 C.ar    1  UNL1        0.0179
     24 C         139.9468  139.3018  165.9250 C.ar    1  UNL1        0.0403
     25 C         138.7151  138.4471  165.8750 C.ar    1  UNL1        0.1643
     26 C         137.7815  138.4076  167.0484 C.ar    1  UNL1        0.1358
     27 N         138.0795  139.2229  168.2718 N.ar    1  UNL1       -0.2449
     28 O         142.0741  141.2246  160.2181 O.3     1  UNL1       -0.4698
     29 C         142.2004  141.3585  161.7068 C.3     1  UNL1        0.2413
     30 C         141.0544  141.8964  162.5114 C.3     1  UNL1        0.0574
     31 C         143.4727  140.9545  162.3909 C.2     1  UNL1        0.2660
     32 O         143.6757  139.5307  162.8171 O.2     1  UNL1       -0.2710
     33 N         144.5421  141.9742  162.6488 N.am    1  UNL1       -0.2723
     34 C         145.8144  141.5702  163.3329 C.3     1  UNL1        0.1150
     35 C         144.3391  143.3980  162.2226 C.3     1  UNL1        0.1252
     36 C         143.8288  144.4097  163.2056 C.3     1  UNL1        0.1586
     37 O         142.9613  145.5398  162.7366 O.3     1  UNL1       -0.3802
     38 H         143.4752  146.1226  162.1559 H       1  UNL1        0.2105
@<TRIPOS>BOND
     1    21    22    1
     2    22    23   ar
     3    23    24   ar
     4    24    25   ar
     5    25    20    1
     6    20    13    1
     7    13    14   ar
     8    14    15   ar
     9    15    16   ar
    10    16    11    1
    11    11     1    1
    12     1     2   ar
    13     2     3   ar
    14     3     4   ar
    15     4     5   ar
    16     5     6   ar
    17     6     7   ar
    18     7     8   ar
    19     8     9   ar
    20     9    28    1
    21    28    29    1
    22    29    30    1
    23    29    31    1
    24    31    32    2
    25    31    33   am
    26    33    34    1
    27    33    35    1
    28    35    36    1
    29    36    37    1
    30     9    10   ar
    31    16    17   ar
    32    17    18   ar
    33    18    19    1
    34    25    26   ar
    35    26    27   ar
    36    27    22   ar
    37    18    13   ar
    38    10     1   ar
    39    10     5   ar
    40    11    12    1
    41    37    38    1
