@<TRIPOS>MOLECULE
*****
 32 35 0 0 0
SMALL
GASTEIGER

@<TRIPOS>ATOM
      1 C         138.3760  139.8966  162.9052 C.ar    1  UNL1       -0.0162
      2 C         138.8534  138.4938  162.6718 C.ar    1  UNL1       -0.0039
      3 C         139.2783  138.0648  161.2987 C.ar    1  UNL1       -0.0003
      4 C         139.2259  139.0386  160.1590 C.ar    1  UNL1       -0.0003
      5 C         138.7485  140.4413  160.3923 C.ar    1  UNL1       -0.0003
      6 C         138.3236  140.8703  161.7654 C.ar    1  UNL1       -0.0039
      7 C         139.6508  138.6096  158.7859 C.2     1  UNL1       -0.0032
      8 C         141.0039  138.9942  158.2651 C.2     1  UNL1       -0.0088
      9 C         141.4288  138.5652  156.8920 C.3     1  UNL1        0.0989
     10 N         141.7630  137.1274  156.6253 N.3     1  UNL1       -0.2665
     11 C         140.9823  136.3527  155.6055 C.3     1  UNL1        0.0899
     12 C         141.3165  134.9149  155.3388 C.3     1  UNL1        0.0896
     13 N         142.4315  134.2520  156.0921 N.3     1  UNL1       -0.2716
     14 C         143.2122  135.0267  157.1119 C.3     1  UNL1        0.0896
     15 C         142.8780  136.4645  157.3786 C.3     1  UNL1        0.0899
     16 C         142.7657  132.8142  155.8254 C.3     1  UNL1        0.0577
     17 C         144.1724  132.3253  156.0052 C.3     1  UNL1        0.0173
     18 C         141.6933  131.8652  155.3789 C.3     1  UNL1        0.0173
     19 C         137.9512  140.3255  164.2783 C.3     1  UNL1        0.0734
     20 C         138.8597  139.5403  166.6663 C.ar    1  UNL1        0.0745
     21 N         140.0623  139.8640  167.5024 N.ar    1  UNL1       -0.2300
     22 C         140.8918  140.8646  166.7536 C.ar    1  UNL1        0.1591
     23 C         142.1861  141.5455  167.0867 C.ar    1  UNL1        0.0152
     24 C         142.8760  141.2509  168.3856 C.3     1  UNL1        0.0343
     25 C         142.7906  142.5211  166.1209 C.ar    1  UNL1        0.0152
     26 C         142.1007  142.8157  164.8219 C.ar    1  UNL1        0.0792
     27 C         142.7053  143.7913  163.8561 C.3     1  UNL1        0.0539
     28 N         140.8064  142.1348  164.4888 N.ar    1  UNL1       -0.1685
     29 N         140.2019  141.1593  165.4547 N.ar    1  UNL1       -0.2154
     30 C         138.9460  140.3408  165.4008 C.ar    1  UNL1        0.0800
     31 C         137.7658  137.1916  166.4736 C.3     1  UNL1        0.0067
     32 C         137.7634  138.5839  167.0317 C.3     1  UNL1        0.0471
@<TRIPOS>BOND
     1    31    32    1
     2    32    20    1
     3    20    21   ar
     4    21    22   ar
     5    22    23   ar
     6    23    24    1
     7    23    25   ar
     8    25    26   ar
     9    26    27    1
    10    26    28   ar
    11    28    29   ar
    12    29    30   ar
    13    30    19    1
    14    19     1    1
    15     1     2   ar
    16     2     3   ar
    17     3     4   ar
    18     4     7    1
    19     7     8    2
    20     8     9    1
    21     9    10    1
    22    10    11    1
    23    11    12    1
    24    12    13    1
    25    13    16    1
    26    16    17    1
    27    16    18    1
    28    13    14    1
    29    14    15    1
    30     4     5   ar
    31     5     6   ar
    32    30    20   ar
    33     6     1   ar
    34    29    22   ar
    35    15    10    1
@<TRIPOS>MOLECULE
*****
 32 35 0 0 0
SMALL
GASTEIGER

@<TRIPOS>ATOM
      1 C         140.4000  139.7318  162.5704 C.ar    1  UNL1       -0.0162
      2 C         140.1998  140.0811  161.1253 C.ar    1  UNL1       -0.0039
      3 C         140.9855  139.3675  160.0654 C.ar    1  UNL1       -0.0003
      4 C         141.9713  138.3046  160.4504 C.ar    1  UNL1       -0.0003
      5 C         142.1715  137.9552  161.8953 C.ar    1  UNL1       -0.0003
      6 C         141.3859  138.6688  162.9553 C.ar    1  UNL1       -0.0039
      7 C         142.7570  137.5910  159.3904 C.2     1  UNL1       -0.0032
      8 C         142.2822  137.6052  157.9676 C.2     1  UNL1       -0.0088
      9 C         143.0678  136.8916  156.9076 C.3     1  UNL1        0.0989
     10 N         142.7246  135.4774  156.5439 N.3     1  UNL1       -0.2665
     11 C         143.3766  134.3373  157.2684 C.3     1  UNL1        0.0899
     12 C         143.0334  132.9231  156.9047 C.3     1  UNL1        0.0896
     13 N         142.0381  132.6491  155.8164 N.3     1  UNL1       -0.2716
     14 C         141.3861  133.7892  155.0918 C.3     1  UNL1        0.0896
     15 C         141.7294  135.2034  155.4556 C.3     1  UNL1        0.0899
     16 C         141.6949  131.2349  155.4527 C.3     1  UNL1        0.0577
     17 C         142.6145  130.1159  155.8428 C.3     1  UNL1        0.0173
     18 C         140.4322  130.9398  154.6989 C.3     1  UNL1        0.0173
     19 C         139.6144  140.4453  163.6303 C.3     1  UNL1        0.0734
     20 C         139.4163  139.6097  166.1616 C.ar    1  UNL1        0.0745
     21 N         140.1939  139.8497  167.4216 N.ar    1  UNL1       -0.2300
     22 C         141.3232  140.7827  167.0989 C.ar    1  UNL1        0.1591
     23 C         142.4138  141.3691  167.9454 C.ar    1  UNL1        0.0152
     24 C         142.4934  141.0324  169.4050 C.3     1  UNL1        0.0343
     25 C         143.4247  142.2923  167.3324 C.ar    1  UNL1        0.0152
     26 C         143.3451  142.6289  165.8728 C.ar    1  UNL1        0.0792
     27 C         144.3561  143.5521  165.2599 C.3     1  UNL1        0.0539
     28 N         142.2545  142.0425  165.0263 N.ar    1  UNL1       -0.1685
     29 N         141.2436  141.1193  165.6393 N.ar    1  UNL1       -0.2154
     30 C         140.0650  140.3944  165.0601 C.ar    1  UNL1        0.0800
     31 C         137.4636  138.2871  167.2514 C.3     1  UNL1        0.0067
     32 C         138.2030  138.7382  166.0267 C.3     1  UNL1        0.0471
@<TRIPOS>BOND
     1    31    32    1
     2    32    20    1
     3    20    21   ar
     4    21    22   ar
     5    22    23   ar
     6    23    24    1
     7    23    25   ar
     8    25    26   ar
     9    26    27    1
    10    26    28   ar
    11    28    29   ar
    12    29    30   ar
    13    30    19    1
    14    19     1    1
    15     1     2   ar
    16     2     3   ar
    17     3     4   ar
    18     4     7    1
    19     7     8    2
    20     8     9    1
    21     9    10    1
    22    10    11    1
    23    11    12    1
    24    12    13    1
    25    13    16    1
    26    16    17    1
    27    16    18    1
    28    13    14    1
    29    14    15    1
    30     4     5   ar
    31     5     6   ar
    32    30    20   ar
    33     6     1   ar
    34    29    22   ar
    35    15    10    1
@<TRIPOS>MOLECULE
*****
 32 35 0 0 0
SMALL
GASTEIGER

@<TRIPOS>ATOM
      1 C         141.9101  138.7681  163.0514 C.ar    1  UNL1       -0.0162
      2 C         140.8145  138.7049  162.0287 C.ar    1  UNL1       -0.0039
      3 C         141.1307  138.3215  160.6135 C.ar    1  UNL1       -0.0003
      4 C         142.5425  138.0013  160.2208 C.ar    1  UNL1       -0.0003
      5 C         143.6381  138.0645  161.2434 C.ar    1  UNL1       -0.0003
      6 C         143.3219  138.4479  162.6587 C.ar    1  UNL1       -0.0039
      7 C         142.8587  137.6178  158.8056 C.2     1  UNL1       -0.0032
      8 C         141.8253  137.7925  157.7324 C.2     1  UNL1       -0.0088
      9 C         142.1415  137.4091  156.3172 C.3     1  UNL1        0.0989
     10 N         142.3304  135.9656  155.9555 N.3     1  UNL1       -0.2665
     11 C         141.2112  135.2007  155.3134 C.3     1  UNL1        0.0899
     12 C         141.4000  133.7572  154.9518 C.3     1  UNL1        0.0896
     13 N         142.7082  133.0788  155.2323 N.3     1  UNL1       -0.2716
     14 C         143.8273  133.8437  155.8744 C.3     1  UNL1        0.0896
     15 C         143.6384  135.2872  156.2360 C.3     1  UNL1        0.0899
     16 C         142.8970  131.6353  154.8706 C.3     1  UNL1        0.0577
     17 C         143.2887  131.2574  153.4729 C.3     1  UNL1        0.0173
     18 C         142.6942  130.5698  155.9067 C.3     1  UNL1        0.0173
     19 C         141.5938  139.1516  164.4666 C.3     1  UNL1        0.0734
     20 C         139.2505  140.1497  165.2774 C.ar    1  UNL1        0.0745
     21 N         138.6697  141.5273  165.3996 N.ar    1  UNL1       -0.2300
     22 C         139.7065  142.5098  164.9415 C.ar    1  UNL1        0.1591
     23 C         139.6961  144.0064  164.8410 C.ar    1  UNL1        0.0152
     24 C         138.4745  144.7768  165.2463 C.3     1  UNL1        0.0343
     25 C         140.9072  144.7325  164.3353 C.ar    1  UNL1        0.0152
     26 C         142.1288  143.9621  163.9301 C.ar    1  UNL1        0.0792
     27 C         143.3399  144.6884  163.4243 C.3     1  UNL1        0.0539
     28 N         142.1392  142.4656  164.0305 N.ar    1  UNL1       -0.1685
     29 N         140.9281  141.7394  164.5362 N.ar    1  UNL1       -0.2154
     30 C         140.6462  140.2808  164.7439 C.ar    1  UNL1        0.0800
     31 C         137.8217  138.7420  166.9287 C.3     1  UNL1        0.0067
     32 C         138.5573  138.8664  165.6274 C.3     1  UNL1        0.0471
@<TRIPOS>BOND
     1    31    32    1
     2    32    20    1
     3    20    21   ar
     4    21    22   ar
     5    22    23   ar
     6    23    24    1
     7    23    25   ar
     8    25    26   ar
     9    26    27    1
    10    26    28   ar
    11    28    29   ar
    12    29    30   ar
    13    30    19    1
    14    19     1    1
    15     1     2   ar
    16     2     3   ar
    17     3     4   ar
    18     4     7    1
    19     7     8    2
    20     8     9    1
    21     9    10    1
    22    10    11    1
    23    11    12    1
    24    12    13    1
    25    13    16    1
    26    16    17    1
    27    16    18    1
    28    13    14    1
    29    14    15    1
    30     4     5   ar
    31     5     6   ar
    32    30    20   ar
    33     6     1   ar
    34    29    22   ar
    35    15    10    1
@<TRIPOS>MOLECULE
*****
 32 35 0 0 0
SMALL
GASTEIGER

@<TRIPOS>ATOM
      1 C         142.0574  137.9963  159.1320 C.ar    1  UNL1       -0.0162
      2 C         142.8925  137.6310  160.3234 C.ar    1  UNL1       -0.0039
      3 C         142.3319  137.7805  161.7067 C.ar    1  UNL1       -0.0003
      4 C         140.9361  138.2954  161.8985 C.ar    1  UNL1       -0.0003
      5 C         140.1010  138.6607  160.7072 C.ar    1  UNL1       -0.0003
      6 C         140.6617  138.5111  159.3240 C.ar    1  UNL1       -0.0039
      7 C         140.3754  138.4449  163.2817 C.2     1  UNL1       -0.0032
      8 C         138.9981  139.0063  163.4761 C.2     1  UNL1       -0.0088
      9 C         138.4374  139.1558  164.8593 C.3     1  UNL1        0.0989
     10 N         139.1367  140.0249  165.8621 N.3     1  UNL1       -0.2665
     11 C         139.1749  139.6221  167.3065 C.3     1  UNL1        0.0899
     12 C         139.8742  140.4912  168.3093 C.3     1  UNL1        0.0896
     13 N         140.5353  141.7632  167.8676 N.3     1  UNL1       -0.2716
     14 C         140.4971  142.1660  166.4232 C.3     1  UNL1        0.0896
     15 C         139.7978  141.2968  165.4205 C.3     1  UNL1        0.0899
     16 C         141.2346  142.6323  168.8704 C.3     1  UNL1        0.0577
     17 C         142.7014  142.4511  169.1265 C.3     1  UNL1        0.0173
     18 C         140.4671  143.6826  169.6172 C.3     1  UNL1        0.0173
     19 C         142.6181  137.8467  157.7489 C.3     1  UNL1        0.0734
     20 C         140.9896  136.9190  155.8431 C.ar    1  UNL1        0.0745
     21 N         140.8034  135.5978  155.1577 N.ar    1  UNL1       -0.2300
     22 C         141.7980  134.6332  155.7325 C.ar    1  UNL1        0.1591
     23 C         142.0778  133.1884  155.4427 C.ar    1  UNL1        0.0152
     24 C         141.2770  132.4633  154.4021 C.3     1  UNL1        0.0343
     25 C         143.1585  132.4685  156.1936 C.ar    1  UNL1        0.0152
     26 C         143.9594  133.1936  157.2343 C.ar    1  UNL1        0.0792
     27 C         145.0401  132.4737  157.9852 C.3     1  UNL1        0.0539
     28 N         143.6795  134.6384  157.5240 N.ar    1  UNL1       -0.1685
     29 N         142.5988  135.3583  156.7731 N.ar    1  UNL1       -0.2154
     30 C         142.0992  136.7710  156.8415 C.ar    1  UNL1        0.0800
     31 C         138.7867  138.0755  155.0947 C.3     1  UNL1        0.0067
     32 C         140.2040  138.1689  155.5768 C.3     1  UNL1        0.0471
@<TRIPOS>BOND
     1    31    32    1
     2    32    20    1
     3    20    21   ar
     4    21    22   ar
     5    22    23   ar
     6    23    24    1
     7    23    25   ar
     8    25    26   ar
     9    26    27    1
    10    26    28   ar
    11    28    29   ar
    12    29    30   ar
    13    30    19    1
    14    19     1    1
    15     1     2   ar
    16     2     3   ar
    17     3     4   ar
    18     4     7    1
    19     7     8    2
    20     8     9    1
    21     9    10    1
    22    10    11    1
    23    11    12    1
    24    12    13    1
    25    13    16    1
    26    16    17    1
    27    16    18    1
    28    13    14    1
    29    14    15    1
    30     4     5   ar
    31     5     6   ar
    32    30    20   ar
    33     6     1   ar
    34    29    22   ar
    35    15    10    1
@<TRIPOS>MOLECULE
*****
 32 35 0 0 0
SMALL
GASTEIGER

@<TRIPOS>ATOM
      1 C         142.2087  142.3727  165.7702 C.ar    1  UNL1       -0.0162
      2 C         143.4383  142.2217  164.9244 C.ar    1  UNL1       -0.0039
      3 C         143.5198  142.9035  163.5908 C.ar    1  UNL1       -0.0003
      4 C         142.3716  143.7363  163.1029 C.ar    1  UNL1       -0.0003
      5 C         141.1420  143.8873  163.9486 C.ar    1  UNL1       -0.0003
      6 C         141.0605  143.2056  165.2822 C.ar    1  UNL1       -0.0039
      7 C         142.4531  144.4181  161.7693 C.2     1  UNL1       -0.0032
      8 C         141.2154  144.5948  160.9404 C.2     1  UNL1       -0.0088
      9 C         141.2969  145.2765  159.6068 C.3     1  UNL1        0.0989
     10 N         140.4173  144.8251  158.4787 N.3     1  UNL1       -0.2665
     11 C         139.7952  143.4607  158.5125 C.3     1  UNL1        0.0899
     12 C         138.9156  143.0093  157.3844 C.3     1  UNL1        0.0896
     13 N         138.6582  143.9225  156.2225 N.3     1  UNL1       -0.2716
     14 C         139.2804  145.2870  156.1887 C.3     1  UNL1        0.0896
     15 C         140.1600  145.7383  157.3169 C.3     1  UNL1        0.0899
     16 C         137.7786  143.4711  155.0944 C.3     1  UNL1        0.0577
     17 C         137.1584  144.4821  154.1762 C.3     1  UNL1        0.0173
     18 C         137.5192  142.0087  154.8846 C.3     1  UNL1        0.0173
     19 C         142.1273  141.6910  167.1037 C.3     1  UNL1        0.0734
     20 C         140.1449  140.9916  168.7548 C.ar    1  UNL1        0.0745
     21 N         139.0027  140.0215  168.6897 N.ar    1  UNL1       -0.2300
     22 C         139.0596  139.3269  167.3614 C.ar    1  UNL1        0.1591
     23 C         138.1915  138.2719  166.7424 C.ar    1  UNL1        0.0152
     24 C         137.0141  137.7310  167.4982 C.3     1  UNL1        0.0343
     25 C         138.5008  137.7577  165.3677 C.ar    1  UNL1        0.0152
     26 C         139.6782  138.2985  164.6120 C.ar    1  UNL1        0.0792
     27 C         139.9875  137.7842  163.2372 C.3     1  UNL1        0.0539
     28 N         140.5463  139.3536  165.2309 N.ar    1  UNL1       -0.1685
     29 N         140.2371  139.8678  166.6056 N.ar    1  UNL1       -0.2154
     30 C         140.9078  140.8966  167.4668 C.ar    1  UNL1        0.0800
     31 C         140.3752  143.3854  169.7382 C.3     1  UNL1        0.0067
     32 C         140.4675  141.8977  169.9059 C.3     1  UNL1        0.0471
@<TRIPOS>BOND
     1    31    32    1
     2    32    20    1
     3    20    21   ar
     4    21    22   ar
     5    22    23   ar
     6    23    24    1
     7    23    25   ar
     8    25    26   ar
     9    26    27    1
    10    26    28   ar
    11    28    29   ar
    12    29    30   ar
    13    30    19    1
    14    19     1    1
    15     1     2   ar
    16     2     3   ar
    17     3     4   ar
    18     4     7    1
    19     7     8    2
    20     8     9    1
    21     9    10    1
    22    10    11    1
    23    11    12    1
    24    12    13    1
    25    13    16    1
    26    16    17    1
    27    16    18    1
    28    13    14    1
    29    14    15    1
    30     4     5   ar
    31     5     6   ar
    32    30    20   ar
    33     6     1   ar
    34    29    22   ar
    35    15    10    1
@<TRIPOS>MOLECULE
*****
 32 35 0 0 0
SMALL
GASTEIGER

@<TRIPOS>ATOM
      1 C         138.3549  140.6228  161.1356 C.ar    1  UNL1       -0.0162
      2 C         138.9541  139.2536  161.2644 C.ar    1  UNL1       -0.0039
      3 C         139.5046  138.5590  160.0542 C.ar    1  UNL1       -0.0003
      4 C         139.4558  139.2334  158.7153 C.ar    1  UNL1       -0.0003
      5 C         138.8566  140.6024  158.5865 C.ar    1  UNL1       -0.0003
      6 C         138.3061  141.2971  159.7966 C.ar    1  UNL1       -0.0039
      7 C         140.0063  138.5387  157.5052 C.2     1  UNL1       -0.0032
      8 C         141.3376  137.8511  157.5758 C.2     1  UNL1       -0.0088
      9 C         141.8880  137.1564  156.3657 C.3     1  UNL1        0.0989
     10 N         142.1148  135.6739  156.3903 N.3     1  UNL1       -0.2665
     11 C         141.3610  134.7841  155.4468 C.3     1  UNL1        0.0899
     12 C         141.5877  133.3016  155.4714 C.3     1  UNL1        0.0896
     13 N         142.5684  132.7088  156.4395 N.3     1  UNL1       -0.2716
     14 C         143.3222  133.5986  157.3829 C.3     1  UNL1        0.0896
     15 C         143.0954  135.0812  157.3582 C.3     1  UNL1        0.0899
     16 C         142.7952  131.2263  156.4640 C.3     1  UNL1        0.0577
     17 C         143.8121  130.6384  157.3969 C.3     1  UNL1        0.0173
     18 C         142.0050  130.3315  155.5557 C.3     1  UNL1        0.0173
     19 C         137.8044  141.3174  162.3457 C.3     1  UNL1        0.0734
     20 C         139.7107  142.6873  163.6241 C.ar    1  UNL1        0.0745
     21 N         140.3664  142.5887  164.9696 N.ar    1  UNL1       -0.2300
     22 C         139.7540  141.4305  165.7000 C.ar    1  UNL1        0.1591
     23 C         140.0045  140.8582  167.0637 C.ar    1  UNL1        0.0152
     24 C         141.0388  141.4754  167.9577 C.3     1  UNL1        0.0343
     25 C         139.2207  139.6687  167.5333 C.ar    1  UNL1        0.0152
     26 C         138.1864  139.0514  166.6393 C.ar    1  UNL1        0.0792
     27 C         137.4026  137.8618  167.1090 C.3     1  UNL1        0.0539
     28 N         137.9359  139.6238  165.2756 N.ar    1  UNL1       -0.1685
     29 N         138.7197  140.8133  164.8060 N.ar    1  UNL1       -0.2154
     30 C         138.6930  141.5901  163.5230 C.ar    1  UNL1        0.0800
     31 C         139.1287  144.8995  162.3923 C.3     1  UNL1        0.0067
     32 C         140.0186  143.7046  162.5656 C.3     1  UNL1        0.0471
@<TRIPOS>BOND
     1    31    32    1
     2    32    20    1
     3    20    21   ar
     4    21    22   ar
     5    22    23   ar
     6    23    24    1
     7    23    25   ar
     8    25    26   ar
     9    26    27    1
    10    26    28   ar
    11    28    29   ar
    12    29    30   ar
    13    30    19    1
    14    19     1    1
    15     1     2   ar
    16     2     3   ar
    17     3     4   ar
    18     4     7    1
    19     7     8    2
    20     8     9    1
    21     9    10    1
    22    10    11    1
    23    11    12    1
    24    12    13    1
    25    13    16    1
    26    16    17    1
    27    16    18    1
    28    13    14    1
    29    14    15    1
    30     4     5   ar
    31     5     6   ar
    32    30    20   ar
    33     6     1   ar
    34    29    22   ar
    35    15    10    1
@<TRIPOS>MOLECULE
*****
 32 35 0 0 0
SMALL
GASTEIGER

@<TRIPOS>ATOM
      1 C         141.7294  137.9373  158.5406 C.ar    1  UNL1       -0.0162
      2 C         140.2950  138.3658  158.4452 C.ar    1  UNL1       -0.0039
      3 C         139.5381  138.7344  159.6866 C.ar    1  UNL1       -0.0003
      4 C         140.2156  138.6746  161.0236 C.ar    1  UNL1       -0.0003
      5 C         141.6499  138.2461  161.1190 C.ar    1  UNL1       -0.0003
      6 C         142.4068  137.8775  159.8776 C.ar    1  UNL1       -0.0039
      7 C         139.4587  139.0432  162.2650 C.2     1  UNL1       -0.0032
      8 C         138.6440  140.3021  162.3007 C.2     1  UNL1       -0.0088
      9 C         137.8871  140.6708  163.5421 C.3     1  UNL1        0.0989
     10 N         138.5363  140.5275  164.8867 N.3     1  UNL1       -0.2665
     11 C         138.0972  139.4378  165.8193 C.3     1  UNL1        0.0899
     12 C         138.7464  139.2944  167.1639 C.3     1  UNL1        0.0896
     13 N         139.8348  140.2409  167.5758 N.3     1  UNL1       -0.2716
     14 C         140.2739  141.3306  166.6433 C.3     1  UNL1        0.0896
     15 C         139.6246  141.4739  165.2987 C.3     1  UNL1        0.0899
     16 C         140.4840  140.0976  168.9205 C.3     1  UNL1        0.0577
     17 C         139.6611  140.2251  170.1681 C.3     1  UNL1        0.0173
     18 C         141.9562  139.8268  169.0175 C.3     1  UNL1        0.0173
     19 C         142.4862  137.5687  157.2992 C.3     1  UNL1        0.0734
     20 C         140.9846  136.3466  155.4561 C.ar    1  UNL1        0.0745
     21 N         140.9076  134.9540  154.9041 N.ar    1  UNL1       -0.2300
     22 C         141.9438  134.1217  155.5994 C.ar    1  UNL1        0.1591
     23 C         142.3267  132.6776  155.4653 C.ar    1  UNL1        0.0152
     24 C         141.6093  131.7995  154.4835 C.3     1  UNL1        0.0343
     25 C         143.4272  132.1117  156.3131 C.ar    1  UNL1        0.0152
     26 C         144.1446  132.9899  157.2950 C.ar    1  UNL1        0.0792
     27 C         145.2451  132.4239  158.1428 C.3     1  UNL1        0.0539
     28 N         143.7617  134.4340  157.4290 N.ar    1  UNL1       -0.1685
     29 N         142.6613  134.9999  156.5812 N.ar    1  UNL1       -0.2154
     30 C         142.0685  136.3749  156.4927 C.ar    1  UNL1        0.0800
     31 C         138.6353  137.3647  155.0157 C.3     1  UNL1        0.0067
     32 C         140.1282  137.5071  155.0440 C.3     1  UNL1        0.0471
@<TRIPOS>BOND
     1    31    32    1
     2    32    20    1
     3    20    21   ar
     4    21    22   ar
     5    22    23   ar
     6    23    24    1
     7    23    25   ar
     8    25    26   ar
     9    26    27    1
    10    26    28   ar
    11    28    29   ar
    12    29    30   ar
    13    30    19    1
    14    19     1    1
    15     1     2   ar
    16     2     3   ar
    17     3     4   ar
    18     4     7    1
    19     7     8    2
    20     8     9    1
    21     9    10    1
    22    10    11    1
    23    11    12    1
    24    12    13    1
    25    13    16    1
    26    16    17    1
    27    16    18    1
    28    13    14    1
    29    14    15    1
    30     4     5   ar
    31     5     6   ar
    32    30    20   ar
    33     6     1   ar
    34    29    22   ar
    35    15    10    1
@<TRIPOS>MOLECULE
*****
 32 35 0 0 0
SMALL
GASTEIGER

@<TRIPOS>ATOM
      1 C         142.8102  141.2179  160.6242 C.ar    1  UNL1       -0.0162
      2 C         143.7130  140.0567  160.3297 C.ar    1  UNL1       -0.0039
      3 C         143.2615  138.9739  159.3949 C.ar    1  UNL1       -0.0003
      4 C         141.9073  139.0524  158.7546 C.ar    1  UNL1       -0.0003
      5 C         141.0046  140.2135  159.0492 C.ar    1  UNL1       -0.0003
      6 C         141.4560  141.2963  159.9839 C.ar    1  UNL1       -0.0039
      7 C         141.4559  137.9696  157.8199 C.2     1  UNL1       -0.0032
      8 C         142.4687  137.1164  157.1155 C.2     1  UNL1       -0.0088
      9 C         142.0173  136.0336  156.1807 C.3     1  UNL1        0.0989
     10 N         142.4717  134.6202  156.3949 N.3     1  UNL1       -0.2665
     11 C         141.7599  133.4916  155.7098 C.3     1  UNL1        0.0899
     12 C         142.2143  132.0782  155.9240 C.3     1  UNL1        0.0896
     13 N         143.3805  131.7936  156.8234 N.3     1  UNL1       -0.2716
     14 C         144.0923  132.9222  157.5086 C.3     1  UNL1        0.0896
     15 C         143.6379  134.3356  157.2943 C.3     1  UNL1        0.0899
     16 C         143.8349  130.3802  157.0377 C.3     1  UNL1        0.0577
     17 C         143.4719  129.3169  156.0439 C.3     1  UNL1        0.0173
     18 C         144.6523  130.0301  158.2456 C.3     1  UNL1        0.0173
     19 C         143.2617  142.3006  161.5590 C.3     1  UNL1        0.0734
     20 C         143.6625  141.7069  164.1342 C.ar    1  UNL1        0.0745
     21 N         142.8721  141.8780  165.3976 N.ar    1  UNL1       -0.2300
     22 C         141.5737  142.5416  165.0458 C.ar    1  UNL1        0.1591
     23 C         140.4008  142.9590  165.8825 C.ar    1  UNL1        0.0152
     24 C         140.4129  142.7199  167.3633 C.3     1  UNL1        0.0343
     25 C         139.2159  143.6155  165.2384 C.ar    1  UNL1        0.0152
     26 C         139.2038  143.8546  163.7576 C.ar    1  UNL1        0.0792
     27 C         138.0187  144.5111  163.1136 C.3     1  UNL1        0.0539
     28 N         140.3766  143.4372  162.9209 N.ar    1  UNL1       -0.1685
     29 N         141.5616  142.7806  163.5650 N.ar    1  UNL1       -0.2154
     30 C         142.8525  142.2648  163.0017 C.ar    1  UNL1        0.0800
     31 C         145.1954  139.6116  164.2329 C.3     1  UNL1        0.0067
     32 C         145.0238  141.0869  164.0230 C.3     1  UNL1        0.0471
@<TRIPOS>BOND
     1    31    32    1
     2    32    20    1
     3    20    21   ar
     4    21    22   ar
     5    22    23   ar
     6    23    24    1
     7    23    25   ar
     8    25    26   ar
     9    26    27    1
    10    26    28   ar
    11    28    29   ar
    12    29    30   ar
    13    30    19    1
    14    19     1    1
    15     1     2   ar
    16     2     3   ar
    17     3     4   ar
    18     4     7    1
    19     7     8    2
    20     8     9    1
    21     9    10    1
    22    10    11    1
    23    11    12    1
    24    12    13    1
    25    13    16    1
    26    16    17    1
    27    16    18    1
    28    13    14    1
    29    14    15    1
    30     4     5   ar
    31     5     6   ar
    32    30    20   ar
    33     6     1   ar
    34    29    22   ar
    35    15    10    1
@<TRIPOS>MOLECULE
*****
 32 35 0 0 0
SMALL
GASTEIGER

@<TRIPOS>ATOM
      1 C         141.8307  143.9575  161.9529 C.ar    1  UNL1       -0.0162
      2 C         142.5980  143.3875  160.7968 C.ar    1  UNL1       -0.0039
      3 C         142.3310  143.8779  159.4046 C.ar    1  UNL1       -0.0003
      4 C         141.2967  144.9384  159.1685 C.ar    1  UNL1       -0.0003
      5 C         140.5295  145.5083  160.3245 C.ar    1  UNL1       -0.0003
      6 C         140.7964  145.0179  161.7167 C.ar    1  UNL1       -0.0039
      7 C         141.0298  145.4288  157.7763 C.2     1  UNL1       -0.0032
      8 C         139.7895  144.9945  157.0530 C.2     1  UNL1       -0.0088
      9 C         139.5226  145.4849  155.6608 C.3     1  UNL1        0.0989
     10 N         139.5339  146.9561  155.3688 N.3     1  UNL1       -0.2665
     11 C         140.2959  147.4806  154.1880 C.3     1  UNL1        0.0899
     12 C         140.3072  148.9518  153.8960 C.3     1  UNL1        0.0896
     13 N         139.5565  149.8986  154.7850 N.3     1  UNL1       -0.2716
     14 C         138.7946  149.3742  155.9658 C.3     1  UNL1        0.0896
     15 C         138.7833  147.9029  156.2577 C.3     1  UNL1        0.0899
     16 C         139.5679  151.3699  154.4930 C.3     1  UNL1        0.0577
     17 C         140.7882  152.0069  153.8970 C.3     1  UNL1        0.0173
     18 C         138.3590  152.2042  154.7970 C.3     1  UNL1        0.0173
     19 C         142.0976  143.4670  163.3450 C.3     1  UNL1        0.0734
     20 C         140.1689  142.3799  164.8427 C.ar    1  UNL1        0.0745
     21 N         139.7033  140.9814  165.1210 N.ar    1  UNL1       -0.2300
     22 C         140.5724  140.0397  164.3412 C.ar    1  UNL1        0.1591
     23 C         140.5803  138.5442  164.2252 C.ar    1  UNL1        0.0152
     24 C         139.5776  137.7277  164.9854 C.3     1  UNL1        0.0343
     25 C         141.5909  137.8653  163.3491 C.ar    1  UNL1        0.0152
     26 C         142.5936  138.6819  162.5889 C.ar    1  UNL1        0.0792
     27 C         143.6042  138.0028  161.7127 C.3     1  UNL1        0.0539
     28 N         142.5857  140.1773  162.7049 N.ar    1  UNL1       -0.1685
     29 N         141.5751  140.8562  163.5811 N.ar    1  UNL1       -0.2154
     30 C         141.3257  142.3025  163.8910 C.ar    1  UNL1        0.0800
     31 C         138.5215  144.3804  164.6590 C.3     1  UNL1        0.0067
     32 C         139.5809  143.6353  165.4156 C.3     1  UNL1        0.0471
@<TRIPOS>BOND
     1    31    32    1
     2    32    20    1
     3    20    21   ar
     4    21    22   ar
     5    22    23   ar
     6    23    24    1
     7    23    25   ar
     8    25    26   ar
     9    26    27    1
    10    26    28   ar
    11    28    29   ar
    12    29    30   ar
    13    30    19    1
    14    19     1    1
    15     1     2   ar
    16     2     3   ar
    17     3     4   ar
    18     4     7    1
    19     7     8    2
    20     8     9    1
    21     9    10    1
    22    10    11    1
    23    11    12    1
    24    12    13    1
    25    13    16    1
    26    16    17    1
    27    16    18    1
    28    13    14    1
    29    14    15    1
    30     4     5   ar
    31     5     6   ar
    32    30    20   ar
    33     6     1   ar
    34    29    22   ar
    35    15    10    1
