@<TRIPOS>MOLECULE
*****
 33 37 0 0 0
SMALL
GASTEIGER

@<TRIPOS>ATOM
      1 C         139.3303  138.6994  161.8856 C.ar    1  UNL1        0.1387
      2 C         138.1776  139.1509  161.0387 C.ar    1  UNL1        0.1226
      3 N         138.6129  139.1108  159.6038 N.ar    1  UNL1       -0.2246
      4 C         140.0348  138.6347  159.5639 C.ar    1  UNL1        0.1510
      5 C         140.9830  138.3997  158.4257 C.ar    1  UNL1        0.0749
      6 C         142.3747  137.9105  158.6977 C.ar    1  UNL1        0.1517
      7 C         142.8180  137.6563  160.1079 C.ar    1  UNL1        0.0567
      8 C         141.8698  137.8912  161.2462 C.ar    1  UNL1        0.0847
      9 N         140.4782  138.3804  160.9742 N.ar    1  UNL1       -0.2848
     10 N         138.6359  139.6211  164.2134 N.am    1  UNL1       -0.2619
     11 C         139.3346  138.5868  163.3813 C.2     1  UNL1        0.2684
     12 O         140.0375  137.4400  164.0451 O.2     1  UNL1       -0.2681
     13 H         138.1745  140.3738  163.7777 H       1  UNL1        0.1567
     14 C         139.2552  139.7723  168.0420 C.ar    1  UNL1        0.1549
     15 C         139.6273  140.1497  166.6388 C.ar    1  UNL1        0.0733
     16 C         138.6401  139.5084  165.7091 C.ar    1  UNL1        0.1762
     17 N         137.6579  138.7347  166.5378 N.ar    1  UNL1       -0.0621
     18 O         138.0381  138.8979  167.9796 O.2     1  UNL1       -0.3565
     19 C         138.6586  140.3690  169.9883 C.3     1  UNL1        0.0076
     20 C         139.9741  140.1952  169.2888 C.3     1  UNL1        0.0539
     21 C         141.2896  140.0215  168.5892 C.3     1  UNL1        0.0076
     22 C         140.6929  140.6181  170.5355 C.3     1  UNL1        0.0076
     23 O         143.3230  137.6756  157.5594 O.3     1  UNL1       -0.4361
     24 C         142.9798  136.6808  156.4905 C.ar    1  UNL1        0.2295
     25 N         142.6008  137.1548  155.1187 N.ar    1  UNL1       -0.1893
     26 C         142.2576  136.1601  154.0497 C.ar    1  UNL1        0.2012
     27 N         142.2934  134.6913  154.3526 N.ar    1  UNL1       -0.2270
     28 C         142.6724  134.2174  155.7243 C.ar    1  UNL1        0.0785
     29 C         143.0156  135.2122  156.7933 C.ar    1  UNL1        0.0621
     30 C         143.3494  134.4529  158.0431 C.3     1  UNL1        0.1019
     31 N         143.2125  132.9889  157.7466 N.3     1  UNL1       -0.2886
     32 C         142.7941  132.8434  156.3135 C.3     1  UNL1        0.1153
     33 H         142.5067  132.5766  158.3568 H       1  UNL1        0.1239
@<TRIPOS>BOND
     1    19    20    1
     2    20    21    1
     3    20    22    1
     4    20    14    1
     5    14    15   ar
     6    15    16   ar
     7    16    10    1
     8    10    11   am
     9    11    12    2
    10    11     1    1
    11     1     2   ar
    12     2     3   ar
    13     3     4   ar
    14     4     5   ar
    15     5     6   ar
    16     6    23    1
    17    23    24    1
    18    24    25   ar
    19    25    26   ar
    20    26    27   ar
    21    27    28   ar
    22    28    29   ar
    23    29    30    1
    24    30    31    1
    25    31    32    1
    26     6     7   ar
    27     7     8   ar
    28     8     9   ar
    29    16    17   ar
    30    17    18   ar
    31    18    14   ar
    32     9     1   ar
    33     9     4   ar
    34    29    24   ar
    35    32    28    1
    36    10    13    1
    37    31    33    1
@<TRIPOS>MOLECULE
*****
 33 37 0 0 0
SMALL
GASTEIGER

@<TRIPOS>ATOM
      1 C         139.2575  138.7412  161.8904 C.ar    1  UNL1        0.1387
      2 C         138.0927  139.1852  161.0562 C.ar    1  UNL1        0.1226
      3 N         138.5166  139.1600  159.6175 N.ar    1  UNL1       -0.2246
      4 C         139.9435  138.7005  159.5627 C.ar    1  UNL1        0.1510
      5 C         140.8849  138.4843  158.4152 C.ar    1  UNL1        0.0749
      6 C         142.2842  138.0092  158.6724 C.ar    1  UNL1        0.1517
      7 C         142.7421  137.7504  160.0771 C.ar    1  UNL1        0.0567
      8 C         141.8006  137.9666  161.2247 C.ar    1  UNL1        0.0847
      9 N         140.4013  138.4416  160.9675 N.ar    1  UNL1       -0.2848
     10 N         138.5907  139.6510  164.2310 N.am    1  UNL1       -0.2619
     11 C         139.2754  138.6184  163.3853 C.2     1  UNL1        0.2684
     12 O         139.9778  137.4630  164.0346 O.2     1  UNL1       -0.2681
     13 H         138.1297  140.4094  163.8049 H       1  UNL1        0.1567
     14 C         139.2412  139.7813  168.0552 C.ar    1  UNL1        0.1549
     15 C         139.5982  140.1715  166.6515 C.ar    1  UNL1        0.0733
     16 C         138.6086  139.5282  165.7258 C.ar    1  UNL1        0.1762
     17 N         137.6400  138.7405  166.5574 N.ar    1  UNL1       -0.0621
     18 O         138.0311  138.8970  167.9970 O.2     1  UNL1       -0.3565
     19 C         141.2786  140.0279  168.5921 C.3     1  UNL1        0.0076
     20 C         139.9670  140.2018  169.2988 C.3     1  UNL1        0.0539
     21 C         138.6553  140.3756  170.0055 C.3     1  UNL1        0.0076
     22 C         140.6927  140.6222  170.5424 C.3     1  UNL1        0.0076
     23 O         143.2257  137.7930  157.5248 O.3     1  UNL1       -0.4361
     24 C         143.0298  136.6253  156.6038 C.ar    1  UNL1        0.2295
     25 N         143.2758  135.2306  157.0982 N.ar    1  UNL1       -0.1893
     26 C         143.0799  134.0630  156.1772 C.ar    1  UNL1        0.2012
     27 N         142.6381  134.2901  154.7618 N.ar    1  UNL1       -0.2270
     28 C         142.3922  135.6847  154.2674 C.ar    1  UNL1        0.0785
     29 C         142.5880  136.8523  155.1885 C.ar    1  UNL1        0.0621
     30 C         142.2709  138.1036  154.4244 C.3     1  UNL1        0.1019
     31 N         141.8790  137.7094  153.0312 N.3     1  UNL1       -0.2886
     32 C         141.9540  136.2144  152.9342 C.3     1  UNL1        0.1153
     33 H         142.5189  138.1324  152.3589 H       1  UNL1        0.1239
@<TRIPOS>BOND
     1    19    20    1
     2    20    21    1
     3    20    22    1
     4    20    14    1
     5    14    15   ar
     6    15    16   ar
     7    16    10    1
     8    10    11   am
     9    11    12    2
    10    11     1    1
    11     1     2   ar
    12     2     3   ar
    13     3     4   ar
    14     4     5   ar
    15     5     6   ar
    16     6    23    1
    17    23    24    1
    18    24    25   ar
    19    25    26   ar
    20    26    27   ar
    21    27    28   ar
    22    28    29   ar
    23    29    30    1
    24    30    31    1
    25    31    32    1
    26     6     7   ar
    27     7     8   ar
    28     8     9   ar
    29    16    17   ar
    30    17    18   ar
    31    18    14   ar
    32     9     1   ar
    33     9     4   ar
    34    29    24   ar
    35    32    28    1
    36    10    13    1
    37    31    33    1
@<TRIPOS>MOLECULE
*****
 33 37 0 0 0
SMALL
GASTEIGER

@<TRIPOS>ATOM
      1 C         140.0871  144.3638  162.4359 C.ar    1  UNL1        0.1387
      2 C         139.0463  145.0523  163.2681 C.ar    1  UNL1        0.1226
      3 N         139.2704  144.6690  164.7009 N.ar    1  UNL1       -0.2246
      4 C         140.4497  143.7436  164.7542 C.ar    1  UNL1        0.1510
      5 C         141.1291  143.0484  165.8965 C.ar    1  UNL1        0.0749
      6 C         142.3133  142.1645  165.6390 C.ar    1  UNL1        0.1517
      7 C         142.8181  141.9758  164.2391 C.ar    1  UNL1        0.0567
      8 C         142.1386  142.6710  163.0968 C.ar    1  UNL1        0.0847
      9 N         140.9545  143.5550  163.3543 N.ar    1  UNL1       -0.2848
     10 N         141.3618  145.2616  160.3576 N.am    1  UNL1       -0.2619
     11 C         140.2347  144.4661  160.9467 C.2     1  UNL1        0.2684
     12 O         139.2553  143.7730  160.0466 O.2     1  UNL1       -0.2681
     13 H         142.0046  145.7165  160.9483 H       1  UNL1        0.1567
     14 C         141.1060  145.9261  156.5420 C.ar    1  UNL1        0.1549
     15 C         140.5760  146.0790  157.9370 C.ar    1  UNL1        0.0733
     16 C         141.5093  145.3639  158.8683 C.ar    1  UNL1        0.1762
     17 N         142.6161  144.7690  158.0491 N.ar    1  UNL1       -0.0621
     18 O         142.3668  145.1165  156.6114 O.2     1  UNL1       -0.3565
     19 C         139.4403  147.1720  156.1258 C.3     1  UNL1        0.0076
     20 C         140.4843  146.4848  155.2965 C.3     1  UNL1        0.0539
     21 C         141.5283  145.7975  154.4672 C.3     1  UNL1        0.0076
     22 C         139.8626  147.0434  154.0510 C.3     1  UNL1        0.0076
     23 O         142.9928  141.4692  166.7813 O.3     1  UNL1       -0.4361
     24 C         142.5595  141.7436  168.1909 C.ar    1  UNL1        0.2295
     25 N         143.3522  142.6843  169.0495 N.ar    1  UNL1       -0.1893
     26 C         142.9189  142.9587  170.4591 C.ar    1  UNL1        0.2012
     27 N         141.6930  142.2926  171.0101 N.ar    1  UNL1       -0.2270
     28 C         140.9004  141.3520  170.1515 C.ar    1  UNL1        0.0785
     29 C         141.3337  141.0776  168.7419 C.ar    1  UNL1        0.0621
     30 C         140.3593  140.1105  168.1375 C.3     1  UNL1        0.1019
     31 N         139.3238  139.7873  169.1734 N.3     1  UNL1       -0.2886
     32 C         139.6583  140.5546  170.4182 C.3     1  UNL1        0.1153
     33 H         139.3322  138.7866  169.3709 H       1  UNL1        0.1239
@<TRIPOS>BOND
     1    19    20    1
     2    20    21    1
     3    20    22    1
     4    20    14    1
     5    14    15   ar
     6    15    16   ar
     7    16    10    1
     8    10    11   am
     9    11    12    2
    10    11     1    1
    11     1     2   ar
    12     2     3   ar
    13     3     4   ar
    14     4     5   ar
    15     5     6   ar
    16     6    23    1
    17    23    24    1
    18    24    25   ar
    19    25    26   ar
    20    26    27   ar
    21    27    28   ar
    22    28    29   ar
    23    29    30    1
    24    30    31    1
    25    31    32    1
    26     6     7   ar
    27     7     8   ar
    28     8     9   ar
    29    16    17   ar
    30    17    18   ar
    31    18    14   ar
    32     9     1   ar
    33     9     4   ar
    34    29    24   ar
    35    32    28    1
    36    10    13    1
    37    31    33    1
@<TRIPOS>MOLECULE
*****
 33 37 0 0 0
SMALL
GASTEIGER

@<TRIPOS>ATOM
      1 C         140.3515  138.9618  162.6359 C.ar    1  UNL1        0.1387
      2 C         139.0751  139.4802  162.0428 C.ar    1  UNL1        0.1226
      3 N         139.1688  139.3460  160.5517 N.ar    1  UNL1       -0.2246
      4 C         140.5032  138.7446  160.2234 C.ar    1  UNL1        0.1510
      5 C         141.1470  138.3825  158.9179 C.ar    1  UNL1        0.0749
      6 C         142.5219  137.7830  158.9006 C.ar    1  UNL1        0.1517
      7 C         143.2528  137.5455  160.1887 C.ar    1  UNL1        0.0567
      8 C         142.6090  137.9076  161.4942 C.ar    1  UNL1        0.0847
      9 N         141.2341  138.5071  161.5115 N.ar    1  UNL1       -0.2848
     10 N         141.9448  139.5492  164.6023 N.am    1  UNL1       -0.2619
     11 C         140.6866  138.9075  164.0970 C.2     1  UNL1        0.2684
     12 O         139.7636  138.2115  165.0528 O.2     1  UNL1       -0.2681
     13 H         142.5506  140.0060  163.9750 H       1  UNL1        0.1567
     14 C         142.3528  140.0043  168.4353 C.ar    1  UNL1        0.1549
     15 C         141.7607  140.4222  167.1221 C.ar    1  UNL1        0.0733
     16 C         142.2798  139.4950  166.0634 C.ar    1  UNL1        0.1762
     17 N         143.1928  138.5039  166.7224 N.ar    1  UNL1       -0.0621
     18 O         143.2380  138.8187  168.1883 O.2     1  UNL1       -0.3565
     19 C         140.9678  139.7106  170.0150 C.3     1  UNL1        0.0076
     20 C         142.1037  140.6572  169.7626 C.3     1  UNL1        0.0539
     21 C         143.2396  141.6038  169.5101 C.3     1  UNL1        0.0076
     22 C         141.8546  141.3102  171.0897 C.3     1  UNL1        0.0076
     23 O         143.1658  137.4209  157.5951 O.3     1  UNL1       -0.4361
     24 C         142.5342  136.3893  156.7080 C.ar    1  UNL1        0.2295
     25 N         141.6055  136.8126  155.6087 N.ar    1  UNL1       -0.1893
     26 C         140.9740  135.7810  154.7216 C.ar    1  UNL1        0.2012
     27 N         141.2712  134.3261  154.9337 N.ar    1  UNL1       -0.2270
     28 C         142.1998  133.9028  156.0330 C.ar    1  UNL1        0.0785
     29 C         142.8314  134.9344  156.9201 C.ar    1  UNL1        0.0621
     30 C         143.6997  134.2219  157.9143 C.3     1  UNL1        0.1019
     31 N         143.6048  132.7499  157.6416 N.3     1  UNL1       -0.2886
     32 C         142.6778  132.5528  156.4789 C.3     1  UNL1        0.1153
     33 H         143.2375  132.2688  158.4626 H       1  UNL1        0.1239
@<TRIPOS>BOND
     1    19    20    1
     2    20    21    1
     3    20    22    1
     4    20    14    1
     5    14    15   ar
     6    15    16   ar
     7    16    10    1
     8    10    11   am
     9    11    12    2
    10    11     1    1
    11     1     2   ar
    12     2     3   ar
    13     3     4   ar
    14     4     5   ar
    15     5     6   ar
    16     6    23    1
    17    23    24    1
    18    24    25   ar
    19    25    26   ar
    20    26    27   ar
    21    27    28   ar
    22    28    29   ar
    23    29    30    1
    24    30    31    1
    25    31    32    1
    26     6     7   ar
    27     7     8   ar
    28     8     9   ar
    29    16    17   ar
    30    17    18   ar
    31    18    14   ar
    32     9     1   ar
    33     9     4   ar
    34    29    24   ar
    35    32    28    1
    36    10    13    1
    37    31    33    1
@<TRIPOS>MOLECULE
*****
 33 37 0 0 0
SMALL
GASTEIGER

@<TRIPOS>ATOM
      1 C         138.8061  143.4899  162.2516 C.ar    1  UNL1        0.1387
      2 C         137.8950  144.3507  163.0756 C.ar    1  UNL1        0.1226
      3 N         137.9681  143.8756  164.4965 N.ar    1  UNL1       -0.2246
      4 C         138.9244  142.7212  164.5506 C.ar    1  UNL1        0.1510
      5 C         139.3905  141.8562  165.6840 C.ar    1  UNL1        0.0749
      6 C         140.3745  140.7530  165.4300 C.ar    1  UNL1        0.1517
      7 C         140.8923  140.5146  164.0425 C.ar    1  UNL1        0.0567
      8 C         140.4263  141.3796  162.9091 C.ar    1  UNL1        0.0847
      9 N         139.4423  142.4828  163.1632 N.ar    1  UNL1       -0.2848
     10 N         140.0181  144.6249  160.2533 N.am    1  UNL1       -0.2619
     11 C         139.0399  143.6144  160.7752 C.2     1  UNL1        0.2684
     12 O         138.2957  142.7286  159.8206 O.2     1  UNL1       -0.2681
     13 H         140.5066  145.2063  160.8798 H       1  UNL1        0.1567
     14 C         140.3677  145.6498  156.5260 C.ar    1  UNL1        0.1549
     15 C         139.9944  145.9695  157.9432 C.ar    1  UNL1        0.0733
     16 C         140.2520  144.7493  158.7769 C.ar    1  UNL1        0.1762
     17 N         140.7844  143.6756  157.8749 N.ar    1  UNL1       -0.0621
     18 O         140.8559  144.2321  156.4838 O.2     1  UNL1       -0.3565
     19 C         139.1324  147.2993  156.0228 C.3     1  UNL1        0.0076
     20 C         140.2699  146.5838  155.3563 C.3     1  UNL1        0.0539
     21 C         141.4075  145.8682  154.6899 C.3     1  UNL1        0.0076
     22 C         140.1722  147.5177  154.1867 C.3     1  UNL1        0.0076
     23 O         140.8406  139.8880  166.5634 O.3     1  UNL1       -0.4361
     24 C         140.6093  140.3203  167.9810 C.ar    1  UNL1        0.2295
     25 N         139.3996  139.8367  168.7246 N.ar    1  UNL1       -0.1893
     26 C         139.1682  140.2690  170.1422 C.ar    1  UNL1        0.2012
     27 N         140.1466  141.1848  170.8162 N.ar    1  UNL1       -0.2270
     28 C         141.3562  141.6683  170.0726 C.ar    1  UNL1        0.0785
     29 C         141.5875  141.2360  168.6550 C.ar    1  UNL1        0.0621
     30 C         142.8604  141.8708  168.1787 C.3     1  UNL1        0.1019
     31 N         143.4158  142.6954  169.3019 N.3     1  UNL1       -0.2886
     32 C         142.4861  142.5702  170.4724 C.3     1  UNL1        0.1153
     33 H         143.4814  143.6720  169.0148 H       1  UNL1        0.1239
@<TRIPOS>BOND
     1    19    20    1
     2    20    21    1
     3    20    22    1
     4    20    14    1
     5    14    15   ar
     6    15    16   ar
     7    16    10    1
     8    10    11   am
     9    11    12    2
    10    11     1    1
    11     1     2   ar
    12     2     3   ar
    13     3     4   ar
    14     4     5   ar
    15     5     6   ar
    16     6    23    1
    17    23    24    1
    18    24    25   ar
    19    25    26   ar
    20    26    27   ar
    21    27    28   ar
    22    28    29   ar
    23    29    30    1
    24    30    31    1
    25    31    32    1
    26     6     7   ar
    27     7     8   ar
    28     8     9   ar
    29    16    17   ar
    30    17    18   ar
    31    18    14   ar
    32     9     1   ar
    33     9     4   ar
    34    29    24   ar
    35    32    28    1
    36    10    13    1
    37    31    33    1
@<TRIPOS>MOLECULE
*****
 33 37 0 0 0
SMALL
GASTEIGER

@<TRIPOS>ATOM
      1 C         138.0962  140.6904  162.1326 C.ar    1  UNL1        0.1387
      2 C         137.3686  141.9215  162.5854 C.ar    1  UNL1        0.1226
      3 N         137.7183  142.1638  164.0238 N.ar    1  UNL1       -0.2246
      4 C         138.6621  141.0826  164.4599 C.ar    1  UNL1        0.1510
      5 C         139.3389  140.8096  165.7703 C.ar    1  UNL1        0.0749
      6 C         140.2493  139.6259  165.9119 C.ar    1  UNL1        0.1517
      7 C         140.4828  138.7153  164.7431 C.ar    1  UNL1        0.0567
      8 C         139.8060  138.9883  163.4326 C.ar    1  UNL1        0.0847
      9 N         138.8956  140.1719  163.2911 N.ar    1  UNL1       -0.2848
     10 N         139.2504  140.0941  159.8826 N.am    1  UNL1       -0.2619
     11 C         138.0351  140.0842  160.7619 C.2     1  UNL1        0.2684
     12 O         136.7588  139.4683  160.2704 O.2     1  UNL1       -0.2681
     13 H         140.0881  140.4984  160.2051 H       1  UNL1        0.1567
     14 C         139.6117  138.0494  156.6032 C.ar    1  UNL1        0.1549
     15 C         139.9889  138.3134  158.0308 C.ar    1  UNL1        0.0733
     16 C         139.1893  139.4879  158.5119 C.ar    1  UNL1        0.1762
     17 N         138.3179  139.9496  157.3816 N.ar    1  UNL1       -0.0621
     18 O         138.5790  139.0606  156.2021 O.2     1  UNL1       -0.3565
     19 C         138.9543  137.0451  154.8542 C.3     1  UNL1        0.0076
     20 C         140.1693  136.9646  155.7302 C.3     1  UNL1        0.0539
     21 C         141.3844  136.8842  156.6061 C.3     1  UNL1        0.0076
     22 C         140.7269  135.8798  154.8571 C.3     1  UNL1        0.0076
     23 O         140.9262  139.3528  167.2224 O.3     1  UNL1       -0.4361
     24 C         141.6541  140.4543  167.9344 C.ar    1  UNL1        0.2295
     25 N         142.6223  141.3206  167.1845 N.ar    1  UNL1       -0.1893
     26 C         143.3502  142.4221  167.8965 C.ar    1  UNL1        0.2012
     27 N         143.1099  142.6572  169.3584 N.ar    1  UNL1       -0.2270
     28 C         142.1418  141.7909  170.1082 C.ar    1  UNL1        0.0785
     29 C         141.4139  140.6895  169.3962 C.ar    1  UNL1        0.0621
     30 C         140.5255  140.0026  170.3906 C.3     1  UNL1        0.1019
     31 N         140.7042  140.6795  171.7172 N.3     1  UNL1       -0.2886
     32 C         141.7032  141.7847  171.5426 C.3     1  UNL1        0.1153
     33 H         141.0470  140.0085  172.4048 H       1  UNL1        0.1239
@<TRIPOS>BOND
     1    19    20    1
     2    20    21    1
     3    20    22    1
     4    20    14    1
     5    14    15   ar
     6    15    16   ar
     7    16    10    1
     8    10    11   am
     9    11    12    2
    10    11     1    1
    11     1     2   ar
    12     2     3   ar
    13     3     4   ar
    14     4     5   ar
    15     5     6   ar
    16     6    23    1
    17    23    24    1
    18    24    25   ar
    19    25    26   ar
    20    26    27   ar
    21    27    28   ar
    22    28    29   ar
    23    29    30    1
    24    30    31    1
    25    31    32    1
    26     6     7   ar
    27     7     8   ar
    28     8     9   ar
    29    16    17   ar
    30    17    18   ar
    31    18    14   ar
    32     9     1   ar
    33     9     4   ar
    34    29    24   ar
    35    32    28    1
    36    10    13    1
    37    31    33    1
@<TRIPOS>MOLECULE
*****
 33 37 0 0 0
SMALL
GASTEIGER

@<TRIPOS>ATOM
      1 C         142.8331  143.8930  162.3551 C.ar    1  UNL1        0.1387
      2 C         143.7101  144.8862  163.0580 C.ar    1  UNL1        0.1226
      3 N         143.9573  144.3832  164.4494 N.ar    1  UNL1       -0.2246
      4 C         143.2329  143.0791  164.6063 C.ar    1  UNL1        0.1510
      5 C         143.1163  142.1284  165.7606 C.ar    1  UNL1        0.0749
      6 C         142.3048  140.8746  165.6205 C.ar    1  UNL1        0.1517
      7 C         141.6100  140.5717  164.3261 C.ar    1  UNL1        0.0567
      8 C         141.7267  141.5224  163.1719 C.ar    1  UNL1        0.0847
      9 N         142.5381  142.7761  163.3119 N.ar    1  UNL1       -0.2848
     10 N         140.9591  144.5217  160.6688 N.am    1  UNL1       -0.2619
     11 C         142.3378  143.9981  160.9431 C.2     1  UNL1        0.2684
     12 O         143.2211  143.5797  159.8053 O.2     1  UNL1       -0.2681
     13 H         140.3793  144.7964  161.4156 H       1  UNL1        0.1567
     14 C         140.0455  145.4516  157.0129 C.ar    1  UNL1        0.1549
     15 C         140.7288  145.7612  158.3118 C.ar    1  UNL1        0.0733
     16 C         140.4639  144.6269  159.2569 C.ar    1  UNL1        0.1762
     17 N         139.6168  143.6162  158.5421 N.ar    1  UNL1       -0.0621
     18 O         139.3582  144.1259  157.1552 O.2     1  UNL1       -0.3565
     19 C         140.9272  145.3210  155.0880 C.3     1  UNL1        0.0076
     20 C         140.0488  146.3158  155.7869 C.3     1  UNL1        0.0539
     21 C         139.1702  147.3107  156.4860 C.3     1  UNL1        0.0076
     22 C         140.0520  147.1801  154.5610 C.3     1  UNL1        0.0076
     23 O         142.1881  139.9238  166.7749 O.3     1  UNL1       -0.4361
     24 C         141.3022  140.2607  167.9374 C.ar    1  UNL1        0.2295
     25 N         139.8621  139.8409  167.9293 N.ar    1  UNL1       -0.1893
     26 C         138.9761  140.1779  169.0918 C.ar    1  UNL1        0.2012
     27 N         139.5302  140.9346  170.2625 N.ar    1  UNL1       -0.2270
     28 C         140.9702  141.3543  170.2706 C.ar    1  UNL1        0.0785
     29 C         141.8562  141.0174  169.1081 C.ar    1  UNL1        0.0621
     30 C         143.2249  141.5593  169.3961 C.3     1  UNL1        0.1019
     31 N         143.1849  142.2311  170.7366 N.3     1  UNL1       -0.2886
     32 C         141.7914  142.1044  171.2771 C.3     1  UNL1        0.1153
     33 H         143.4295  143.2163  170.6375 H       1  UNL1        0.1239
@<TRIPOS>BOND
     1    19    20    1
     2    20    21    1
     3    20    22    1
     4    20    14    1
     5    14    15   ar
     6    15    16   ar
     7    16    10    1
     8    10    11   am
     9    11    12    2
    10    11     1    1
    11     1     2   ar
    12     2     3   ar
    13     3     4   ar
    14     4     5   ar
    15     5     6   ar
    16     6    23    1
    17    23    24    1
    18    24    25   ar
    19    25    26   ar
    20    26    27   ar
    21    27    28   ar
    22    28    29   ar
    23    29    30    1
    24    30    31    1
    25    31    32    1
    26     6     7   ar
    27     7     8   ar
    28     8     9   ar
    29    16    17   ar
    30    17    18   ar
    31    18    14   ar
    32     9     1   ar
    33     9     4   ar
    34    29    24   ar
    35    32    28    1
    36    10    13    1
    37    31    33    1
@<TRIPOS>MOLECULE
*****
 33 37 0 0 0
SMALL
GASTEIGER

@<TRIPOS>ATOM
      1 C         138.4358  142.3862  161.9905 C.ar    1  UNL1        0.1387
      2 C         137.7925  143.5442  162.6942 C.ar    1  UNL1        0.1226
      3 N         138.0805  143.4135  164.1605 N.ar    1  UNL1       -0.2246
      4 C         138.9018  142.1747  164.3630 C.ar    1  UNL1        0.1510
      5 C         139.4780  141.5428  165.5953 C.ar    1  UNL1        0.0749
      6 C         140.2738  140.2760  165.4864 C.ar    1  UNL1        0.1517
      7 C         140.4934  139.6411  164.1453 C.ar    1  UNL1        0.0567
      8 C         139.9171  140.2730  162.9130 C.ar    1  UNL1        0.0847
      9 N         139.1213  141.5398  163.0218 N.ar    1  UNL1       -0.2848
     10 N         138.0005  140.7678  160.0051 N.am    1  UNL1       -0.2619
     11 C         138.3998  142.1211  160.5145 C.2     1  UNL1        0.2684
     12 O         138.7631  143.2090  159.5480 O.2     1  UNL1       -0.2681
     13 H         137.7620  140.0537  160.6394 H       1  UNL1        0.1567
     14 C         137.3904  140.6300  156.1744 C.ar    1  UNL1        0.1549
     15 C         137.1040  141.2129  157.5265 C.ar    1  UNL1        0.0733
     16 C         137.9645  140.5027  158.5291 C.ar    1  UNL1        0.1762
     17 N         138.7827  139.4809  157.7967 N.ar    1  UNL1       -0.0621
     18 O         138.4278  139.5596  156.3414 O.2     1  UNL1       -0.3565
     19 C         136.9690  139.6662  154.3322 C.3     1  UNL1        0.0076
     20 C         136.7515  141.0447  154.8822 C.3     1  UNL1        0.0539
     21 C         136.5339  142.4232  155.4322 C.3     1  UNL1        0.0076
     22 C         136.1126  141.4594  153.5900 C.3     1  UNL1        0.0076
     23 O         140.8501  139.6441  166.7188 O.3     1  UNL1       -0.4361
     24 C         140.5708  140.2388  168.0672 C.ar    1  UNL1        0.2295
     25 N         139.3179  139.8696  168.8048 N.ar    1  UNL1       -0.1893
     26 C         139.0385  140.4643  170.1533 C.ar    1  UNL1        0.2012
     27 N         140.0122  141.4281  170.7641 N.ar    1  UNL1       -0.2270
     28 C         141.2650  141.7973  170.0266 C.ar    1  UNL1        0.0785
     29 C         141.5443  141.2026  168.6781 C.ar    1  UNL1        0.0621
     30 C         142.8532  141.7508  168.1919 C.3     1  UNL1        0.1019
     31 N         143.3828  142.6842  169.2398 N.3     1  UNL1       -0.2886
     32 C         142.4013  142.7130  170.3737 C.3     1  UNL1        0.1153
     33 H         143.4873  143.6204  168.8486 H       1  UNL1        0.1239
@<TRIPOS>BOND
     1    19    20    1
     2    20    21    1
     3    20    22    1
     4    20    14    1
     5    14    15   ar
     6    15    16   ar
     7    16    10    1
     8    10    11   am
     9    11    12    2
    10    11     1    1
    11     1     2   ar
    12     2     3   ar
    13     3     4   ar
    14     4     5   ar
    15     5     6   ar
    16     6    23    1
    17    23    24    1
    18    24    25   ar
    19    25    26   ar
    20    26    27   ar
    21    27    28   ar
    22    28    29   ar
    23    29    30    1
    24    30    31    1
    25    31    32    1
    26     6     7   ar
    27     7     8   ar
    28     8     9   ar
    29    16    17   ar
    30    17    18   ar
    31    18    14   ar
    32     9     1   ar
    33     9     4   ar
    34    29    24   ar
    35    32    28    1
    36    10    13    1
    37    31    33    1
@<TRIPOS>MOLECULE
*****
 33 37 0 0 0
SMALL
GASTEIGER

@<TRIPOS>ATOM
      1 C         142.6437  138.3641  157.6661 C.ar    1  UNL1        0.1387
      2 C         142.5272  139.6533  156.9082 C.ar    1  UNL1        0.1226
      3 N         142.8640  140.7744  157.8461 N.ar    1  UNL1       -0.2246
      4 C         143.1887  140.1782  159.1836 C.ar    1  UNL1        0.1510
      5 C         143.5907  140.7992  160.4885 C.ar    1  UNL1        0.0749
      6 C         143.8566  139.9306  161.6821 C.ar    1  UNL1        0.1517
      7 C         143.7204  138.4409  161.5709 C.ar    1  UNL1        0.0567
      8 C         143.3184  137.8199  160.2660 C.ar    1  UNL1        0.0847
      9 N         143.0525  138.6885  159.0724 N.ar    1  UNL1       -0.2848
     10 N         143.4890  135.9654  157.1354 N.am    1  UNL1       -0.2619
     11 C         142.3950  136.9915  157.1146 C.2     1  UNL1        0.2684
     12 O         141.0526  136.6450  156.5423 O.2     1  UNL1       -0.2681
     13 H         144.3701  136.1927  157.5110 H       1  UNL1        0.1567
     14 C         142.9825  132.7368  155.0414 C.ar    1  UNL1        0.1549
     15 C         143.2961  134.2005  155.1372 C.ar    1  UNL1        0.0733
     16 C         143.2403  134.5928  156.5839 C.ar    1  UNL1        0.1762
     17 N         142.8923  133.3715  157.3823 N.ar    1  UNL1       -0.0621
     18 O         142.7329  132.2245  156.4289 O.2     1  UNL1       -0.3565
     19 C         143.8022  130.8847  154.4107 C.3     1  UNL1        0.0076
     20 C         142.9280  131.9275  153.7796 C.3     1  UNL1        0.0539
     21 C         142.0537  132.9703  153.1485 C.3     1  UNL1        0.0076
     22 C         142.8735  131.1182  152.5179 C.3     1  UNL1        0.0076
     23 O         144.2586  140.5516  162.9870 O.3     1  UNL1       -0.4361
     24 C         143.3087  141.4604  163.7093 C.ar    1  UNL1        0.2295
     25 N         142.3010  140.8881  164.6618 N.ar    1  UNL1       -0.1893
     26 C         141.3511  141.7969  165.3840 C.ar    1  UNL1        0.2012
     27 N         141.4089  143.2781  165.1539 N.ar    1  UNL1       -0.2270
     28 C         142.4165  143.8503  164.2014 C.ar    1  UNL1        0.0785
     29 C         143.3664  142.9415  163.4792 C.ar    1  UNL1        0.0621
     30 C         144.2449  143.7882  162.6066 C.3     1  UNL1        0.1019
     31 N         143.8380  145.2203  162.7896 N.3     1  UNL1       -0.2886
     32 C         142.7080  145.2587  163.7753 C.3     1  UNL1        0.1153
     33 H         143.5329  145.6101  161.8978 H       1  UNL1        0.1239
@<TRIPOS>BOND
     1    19    20    1
     2    20    21    1
     3    20    22    1
     4    20    14    1
     5    14    15   ar
     6    15    16   ar
     7    16    10    1
     8    10    11   am
     9    11    12    2
    10    11     1    1
    11     1     2   ar
    12     2     3   ar
    13     3     4   ar
    14     4     5   ar
    15     5     6   ar
    16     6    23    1
    17    23    24    1
    18    24    25   ar
    19    25    26   ar
    20    26    27   ar
    21    27    28   ar
    22    28    29   ar
    23    29    30    1
    24    30    31    1
    25    31    32    1
    26     6     7   ar
    27     7     8   ar
    28     8     9   ar
    29    16    17   ar
    30    17    18   ar
    31    18    14   ar
    32     9     1   ar
    33     9     4   ar
    34    29    24   ar
    35    32    28    1
    36    10    13    1
    37    31    33    1
