@<TRIPOS>MOLECULE
*****
 31 35 0 0 0
SMALL
GASTEIGER

@<TRIPOS>ATOM
      1 C         141.7798  138.6582  161.6400 C.ar    1  UNL1        0.0681
      2 C         142.8845  137.6641  161.4361 C.ar    1  UNL1        0.0208
      3 C         143.3101  137.2903  160.0472 C.ar    1  UNL1        0.0384
      4 C         142.6311  137.9105  158.8622 C.ar    1  UNL1        0.1385
      5 C         141.5264  138.9045  159.0661 C.ar    1  UNL1        0.0384
      6 C         141.1007  139.2783  160.4550 C.ar    1  UNL1        0.0208
      7 C         138.8415  139.5460  167.7905 C.ar    1  UNL1        0.1402
      8 C         138.0314  138.5646  166.9964 C.ar    1  UNL1        0.0372
      9 C         138.4570  138.1908  165.6075 C.ar    1  UNL1        0.0094
     10 C         139.6928  138.7983  165.0127 C.ar    1  UNL1        0.0744
     11 C         140.1184  138.4245  163.6237 C.ar    1  UNL1        0.2670
     12 O         139.3083  137.4431  162.8296 O.2     1  UNL1       -0.2665
     13 N         141.3541  139.0320  163.0289 N.ar    1  UNL1       -0.2626
     14 C         142.1643  140.0134  163.8230 C.ar    1  UNL1        0.1268
     15 C         143.4000  140.6210  163.2282 C.3     1  UNL1        0.0723
     16 N         141.7386  140.3873  165.2119 N.ar    1  UNL1       -0.2317
     17 C         140.5028  139.7797  165.8068 C.ar    1  UNL1        0.0902
     18 C         140.0772  140.1535  167.1957 C.ar    1  UNL1        0.0562
     19 C         139.2774  140.8241  170.0100 C.3     1  UNL1        0.2525
     20 O         138.4158  139.9198  169.1794 O.3     1  UNL1       -0.4714
     21 O         143.0567  137.5366  157.4733 O.3     1  UNL1       -0.4791
     22 C         142.6929  136.1934  156.9133 C.3     1  UNL1        0.1687
     23 C         141.6249  136.0817  155.8660 C.3     1  UNL1        0.0609
     24 C         141.2611  134.7385  155.3061 C.3     1  UNL1        0.0758
     25 N         141.9653  133.5070  155.7935 N.3     1  UNL1       -0.2737
     26 C         143.0333  133.6188  156.8409 C.3     1  UNL1        0.0758
     27 C         143.3971  134.9620  157.4008 C.3     1  UNL1        0.0609
     28 C         141.6015  132.1638  155.2337 C.3     1  UNL1        0.0575
     29 C         142.0170  130.7500  155.5139 C.3     1  UNL1        0.0160
     30 C         141.0871  130.2643  154.4418 C.3     1  UNL1        0.0028
     31 C         140.6716  131.6781  154.1616 C.3     1  UNL1        0.0160
@<TRIPOS>BOND
     1    19    20    1
     2    20     7    1
     3     7     8   ar
     4     8     9   ar
     5     9    10   ar
     6    10    11   ar
     7    11    12    2
     8    11    13   ar
     9    13     1    1
    10     1     2   ar
    11     2     3   ar
    12     3     4   ar
    13     4    21    1
    14    21    22    1
    15    22    23    1
    16    23    24    1
    17    24    25    1
    18    25    28    1
    19    28    29    1
    20    29    30    1
    21    30    31    1
    22    25    26    1
    23    26    27    1
    24     4     5   ar
    25     5     6   ar
    26    13    14   ar
    27    14    15    1
    28    14    16   ar
    29    16    17   ar
    30    17    18   ar
    31    18     7   ar
    32    17    10   ar
    33     6     1   ar
    34    27    22    1
    35    31    28    1
@<TRIPOS>MOLECULE
*****
 31 35 0 0 0
SMALL
GASTEIGER

@<TRIPOS>ATOM
      1 C         141.4156  138.7670  161.8318 C.ar    1  UNL1        0.0681
      2 C         140.9519  139.5678  160.6513 C.ar    1  UNL1        0.0208
      3 C         141.5070  139.2832  159.2872 C.ar    1  UNL1        0.0384
      4 C         142.5260  138.1977  159.1036 C.ar    1  UNL1        0.1385
      5 C         142.9897  137.3969  160.2842 C.ar    1  UNL1        0.0384
      6 C         142.4345  137.6816  161.6483 C.ar    1  UNL1        0.0208
      7 C         139.9843  140.7286  168.2625 C.ar    1  UNL1        0.1402
      8 C         141.3288  141.2672  167.8726 C.ar    1  UNL1        0.0372
      9 C         141.8840  140.9825  166.5085 C.ar    1  UNL1        0.0094
     10 C         141.0946  140.1594  165.5343 C.ar    1  UNL1        0.0744
     11 C         141.6498  139.8748  164.1702 C.ar    1  UNL1        0.2670
     12 O         142.9944  140.4133  163.7803 O.2     1  UNL1       -0.2665
     13 N         140.8604  139.0516  163.1960 N.ar    1  UNL1       -0.2626
     14 C         139.5158  138.5130  163.5858 C.ar    1  UNL1        0.1268
     15 C         138.7264  137.6898  162.6115 C.3     1  UNL1        0.0723
     16 N         138.9606  138.7976  164.9499 N.ar    1  UNL1       -0.2317
     17 C         139.7501  139.6208  165.9242 C.ar    1  UNL1        0.0902
     18 C         139.1949  139.9054  167.2883 C.ar    1  UNL1        0.0562
     19 C         139.8192  142.2691  170.3480 C.3     1  UNL1        0.2525
     20 O         139.4291  141.0132  169.6266 O.3     1  UNL1       -0.4714
     21 O         143.0811  137.9131  157.7395 O.3     1  UNL1       -0.4791
     22 C         142.6612  136.6762  157.0020 C.3     1  UNL1        0.1687
     23 C         143.3376  135.3678  157.2858 C.3     1  UNL1        0.0609
     24 C         142.9177  134.1309  156.5482 C.3     1  UNL1        0.0758
     25 N         141.8215  134.2025  155.5269 N.3     1  UNL1       -0.2737
     26 C         141.1451  135.5110  155.2432 C.3     1  UNL1        0.0758
     27 C         141.5650  136.7478  155.9807 C.3     1  UNL1        0.0609
     28 C         141.4016  132.9658  154.7894 C.3     1  UNL1        0.0575
     29 C         141.2469  131.5177  155.1487 C.3     1  UNL1        0.0160
     30 C         140.8077  131.2166  153.7464 C.3     1  UNL1        0.0028
     31 C         140.9624  132.6647  153.3871 C.3     1  UNL1        0.0160
@<TRIPOS>BOND
     1    19    20    1
     2    20     7    1
     3     7     8   ar
     4     8     9   ar
     5     9    10   ar
     6    10    11   ar
     7    11    12    2
     8    11    13   ar
     9    13     1    1
    10     1     2   ar
    11     2     3   ar
    12     3     4   ar
    13     4    21    1
    14    21    22    1
    15    22    23    1
    16    23    24    1
    17    24    25    1
    18    25    28    1
    19    28    29    1
    20    29    30    1
    21    30    31    1
    22    25    26    1
    23    26    27    1
    24     4     5   ar
    25     5     6   ar
    26    13    14   ar
    27    14    15    1
    28    14    16   ar
    29    16    17   ar
    30    17    18   ar
    31    18     7   ar
    32    17    10   ar
    33     6     1   ar
    34    27    22    1
    35    31    28    1
@<TRIPOS>MOLECULE
*****
 31 35 0 0 0
SMALL
GASTEIGER

@<TRIPOS>ATOM
      1 C         142.0631  138.7022  159.9117 C.ar    1  UNL1        0.0681
      2 C         143.1463  139.7399  159.9031 C.ar    1  UNL1        0.0208
      3 C         143.9724  139.9718  161.1335 C.ar    1  UNL1        0.0384
      4 C         143.7154  139.1661  162.3724 C.ar    1  UNL1        0.1385
      5 C         142.6323  138.1285  162.3809 C.ar    1  UNL1        0.0384
      6 C         141.8061  137.8965  161.1506 C.ar    1  UNL1        0.0208
      7 C         139.2802  136.8974  153.8911 C.ar    1  UNL1        0.1402
      8 C         140.6281  136.2525  154.0220 C.ar    1  UNL1        0.0372
      9 C         141.4543  136.4844  155.2523 C.ar    1  UNL1        0.0094
     10 C         140.9325  137.3613  156.3517 C.ar    1  UNL1        0.0744
     11 C         141.7587  137.5933  157.5820 C.ar    1  UNL1        0.2670
     12 O         143.1066  136.9483  157.7129 O.2     1  UNL1       -0.2665
     13 N         141.2370  138.4702  158.6814 N.ar    1  UNL1       -0.2626
     14 C         139.8890  139.1152  158.5506 C.ar    1  UNL1        0.1268
     15 C         139.3673  139.9921  159.6500 C.3     1  UNL1        0.0723
     16 N         139.0628  138.8833  157.3203 N.ar    1  UNL1       -0.2317
     17 C         139.5846  138.0063  156.2208 C.ar    1  UNL1        0.0902
     18 C         138.7585  137.7743  154.9905 C.ar    1  UNL1        0.0562
     19 C         137.0069  137.0596  152.6438 C.3     1  UNL1        0.2525
     20 O         138.4541  136.6654  152.6608 O.3     1  UNL1       -0.4714
     21 O         144.5416  139.3981  163.6027 O.3     1  UNL1       -0.4791
     22 C         143.9484  140.1126  164.7807 C.3     1  UNL1        0.1687
     23 C         143.2725  139.3322  165.8688 C.3     1  UNL1        0.0609
     24 C         142.6793  140.0467  167.0468 C.3     1  UNL1        0.0758
     25 N         142.7621  141.5417  167.1366 N.3     1  UNL1       -0.2737
     26 C         143.4380  142.3222  166.0484 C.3     1  UNL1        0.0758
     27 C         144.0312  141.6076  164.8705 C.3     1  UNL1        0.0609
     28 C         142.1689  142.2563  168.3145 C.3     1  UNL1        0.0575
     29 C         140.8351  142.8702  168.6211 C.3     1  UNL1        0.0160
     30 C         141.3301  143.2669  169.9804 C.3     1  UNL1        0.0028
     31 C         142.6640  142.6529  169.6738 C.3     1  UNL1        0.0160
@<TRIPOS>BOND
     1    19    20    1
     2    20     7    1
     3     7     8   ar
     4     8     9   ar
     5     9    10   ar
     6    10    11   ar
     7    11    12    2
     8    11    13   ar
     9    13     1    1
    10     1     2   ar
    11     2     3   ar
    12     3     4   ar
    13     4    21    1
    14    21    22    1
    15    22    23    1
    16    23    24    1
    17    24    25    1
    18    25    28    1
    19    28    29    1
    20    29    30    1
    21    30    31    1
    22    25    26    1
    23    26    27    1
    24     4     5   ar
    25     5     6   ar
    26    13    14   ar
    27    14    15    1
    28    14    16   ar
    29    16    17   ar
    30    17    18   ar
    31    18     7   ar
    32    17    10   ar
    33     6     1   ar
    34    27    22    1
    35    31    28    1
@<TRIPOS>MOLECULE
*****
 31 35 0 0 0
SMALL
GASTEIGER

@<TRIPOS>ATOM
      1 C         140.3712  139.6401  162.1521 C.ar    1  UNL1        0.0681
      2 C         140.9753  140.7286  161.3151 C.ar    1  UNL1        0.0208
      3 C         141.0726  140.5642  159.8273 C.ar    1  UNL1        0.0384
      4 C         140.5658  139.3113  159.1765 C.ar    1  UNL1        0.1385
      5 C         139.9617  138.2229  160.0134 C.ar    1  UNL1        0.0384
      6 C         139.8645  138.3873  161.5012 C.ar    1  UNL1        0.0208
      7 C         141.1570  139.9627  168.9732 C.ar    1  UNL1        0.1402
      8 C         142.4294  139.4633  168.3555 C.ar    1  UNL1        0.0372
      9 C         142.5267  139.2989  166.8677 C.ar    1  UNL1        0.0094
     10 C         141.3516  139.6339  165.9977 C.ar    1  UNL1        0.0744
     11 C         141.4489  139.4695  164.5099 C.ar    1  UNL1        0.2670
     12 O         142.7213  138.9701  163.8921 O.2     1  UNL1       -0.2665
     13 N         140.2739  139.8046  163.6398 N.ar    1  UNL1       -0.2626
     14 C         139.0015  140.3040  164.2576 C.ar    1  UNL1        0.1268
     15 C         137.8264  140.6391  163.3876 C.3     1  UNL1        0.0723
     16 N         138.9042  140.4685  165.7454 N.ar    1  UNL1       -0.2317
     17 C         140.0793  140.1334  166.6154 C.ar    1  UNL1        0.0902
     18 C         139.9820  140.2978  168.1032 C.ar    1  UNL1        0.0562
     19 C         141.4641  141.4223  171.1005 C.3     1  UNL1        0.2525
     20 O         141.0597  140.1272  170.4610 O.3     1  UNL1       -0.4714
     21 O         140.6631  139.1469  157.6887 O.3     1  UNL1       -0.4791
     22 C         141.1593  137.8561  157.1076 C.3     1  UNL1        0.1687
     23 C         142.4884  137.3048  157.5313 C.3     1  UNL1        0.0609
     24 C         142.9846  136.0139  156.9502 C.3     1  UNL1        0.0758
     25 N         142.1517  135.2744  155.9455 N.3     1  UNL1       -0.2737
     26 C         140.8225  135.8258  155.5219 C.3     1  UNL1        0.0758
     27 C         140.3264  137.1166  156.1029 C.3     1  UNL1        0.0609
     28 C         142.6479  133.9837  155.3645 C.3     1  UNL1        0.0575
     29 C         142.2887  133.1509  154.1697 C.3     1  UNL1        0.0160
     30 C         143.3496  132.1582  154.5427 C.3     1  UNL1        0.0028
     31 C         143.7087  132.9910  155.7375 C.3     1  UNL1        0.0160
@<TRIPOS>BOND
     1    19    20    1
     2    20     7    1
     3     7     8   ar
     4     8     9   ar
     5     9    10   ar
     6    10    11   ar
     7    11    12    2
     8    11    13   ar
     9    13     1    1
    10     1     2   ar
    11     2     3   ar
    12     3     4   ar
    13     4    21    1
    14    21    22    1
    15    22    23    1
    16    23    24    1
    17    24    25    1
    18    25    28    1
    19    28    29    1
    20    29    30    1
    21    30    31    1
    22    25    26    1
    23    26    27    1
    24     4     5   ar
    25     5     6   ar
    26    13    14   ar
    27    14    15    1
    28    14    16   ar
    29    16    17   ar
    30    17    18   ar
    31    18     7   ar
    32    17    10   ar
    33     6     1   ar
    34    27    22    1
    35    31    28    1
@<TRIPOS>MOLECULE
*****
 31 35 0 0 0
SMALL
GASTEIGER

@<TRIPOS>ATOM
      1 C         143.5602  142.2465  159.9953 C.ar    1  UNL1        0.0681
      2 C         142.9183  140.9398  160.3569 C.ar    1  UNL1        0.0208
      3 C         143.3864  140.1830  161.5644 C.ar    1  UNL1        0.0384
      4 C         144.4964  140.7329  162.4104 C.ar    1  UNL1        0.1385
      5 C         145.1382  142.0395  162.0488 C.ar    1  UNL1        0.0384
      6 C         144.6701  142.7963  160.8412 C.ar    1  UNL1        0.0208
      7 C         140.6142  146.3122  155.3005 C.ar    1  UNL1        0.1402
      8 C         140.0086  146.5941  156.6436 C.ar    1  UNL1        0.0372
      9 C         140.4767  145.8374  157.8511 C.ar    1  UNL1        0.0094
     10 C         141.5504  144.7987  157.7157 C.ar    1  UNL1        0.0744
     11 C         142.0185  144.0419  158.9232 C.ar    1  UNL1        0.2670
     12 O         141.4130  144.3238  160.2663 O.2     1  UNL1       -0.2665
     13 N         143.0921  143.0032  158.7877 N.ar    1  UNL1       -0.2626
     14 C         143.6977  142.7212  157.4446 C.ar    1  UNL1        0.1268
     15 C         144.7713  141.6825  157.3091 C.3     1  UNL1        0.0723
     16 N         143.2296  143.4780  156.2371 N.ar    1  UNL1       -0.2317
     17 C         142.1559  144.5167  156.3726 C.ar    1  UNL1        0.0902
     18 C         141.6878  145.2735  155.1651 C.ar    1  UNL1        0.0562
     19 C         139.7304  148.5044  154.2221 C.3     1  UNL1        0.2525
     20 O         140.1461  147.0690  154.0930 O.3     1  UNL1       -0.4714
     21 O         144.9645  139.9762  163.6179 O.3     1  UNL1       -0.4791
     22 C         144.1314  139.9646  164.8653 C.3     1  UNL1        0.1687
     23 C         143.5210  141.2379  165.3714 C.3     1  UNL1        0.0609
     24 C         142.6879  141.2263  166.6187 C.3     1  UNL1        0.0758
     25 N         142.4651  139.9414  167.3599 N.3     1  UNL1       -0.2737
     26 C         143.0755  138.6681  166.8538 C.3     1  UNL1        0.0758
     27 C         143.9086  138.6797  165.6065 C.3     1  UNL1        0.0609
     28 C         141.6320  139.9298  168.6072 C.3     1  UNL1        0.0575
     29 C         141.8835  139.5949  170.0476 C.3     1  UNL1        0.0160
     30 C         140.4538  139.9134  170.3712 C.3     1  UNL1        0.0028
     31 C         140.2024  140.2483  168.9308 C.3     1  UNL1        0.0160
@<TRIPOS>BOND
     1    19    20    1
     2    20     7    1
     3     7     8   ar
     4     8     9   ar
     5     9    10   ar
     6    10    11   ar
     7    11    12    2
     8    11    13   ar
     9    13     1    1
    10     1     2   ar
    11     2     3   ar
    12     3     4   ar
    13     4    21    1
    14    21    22    1
    15    22    23    1
    16    23    24    1
    17    24    25    1
    18    25    28    1
    19    28    29    1
    20    29    30    1
    21    30    31    1
    22    25    26    1
    23    26    27    1
    24     4     5   ar
    25     5     6   ar
    26    13    14   ar
    27    14    15    1
    28    14    16   ar
    29    16    17   ar
    30    17    18   ar
    31    18     7   ar
    32    17    10   ar
    33     6     1   ar
    34    27    22    1
    35    31    28    1
@<TRIPOS>MOLECULE
*****
 31 35 0 0 0
SMALL
GASTEIGER

@<TRIPOS>ATOM
      1 C         142.6106  139.1574  162.4152 C.ar    1  UNL1        0.0681
      2 C         142.6937  140.3450  161.5026 C.ar    1  UNL1        0.0208
      3 C         142.9142  140.1468  160.0321 C.ar    1  UNL1        0.0384
      4 C         143.0515  138.7611  159.4744 C.ar    1  UNL1        0.1385
      5 C         142.9684  137.5736  160.3871 C.ar    1  UNL1        0.0384
      6 C         142.7479  137.7718  161.8575 C.ar    1  UNL1        0.0208
      7 C         140.3342  139.9844  168.8483 C.ar    1  UNL1        0.1402
      8 C         139.1602  139.8205  167.9293 C.ar    1  UNL1        0.0372
      9 C         139.3806  139.6223  166.4588 C.ar    1  UNL1        0.0094
     10 C         140.7751  139.5880  165.9074 C.ar    1  UNL1        0.0744
     11 C         140.9956  139.3899  164.4370 C.ar    1  UNL1        0.2670
     12 O         139.8215  139.2260  163.5180 O.2     1  UNL1       -0.2665
     13 N         142.3901  139.3556  163.8856 N.ar    1  UNL1       -0.2626
     14 C         143.5643  139.5195  164.8047 C.ar    1  UNL1        0.1268
     15 C         144.9588  139.4853  164.2533 C.3     1  UNL1        0.0723
     16 N         143.3438  139.7177  166.2751 N.ar    1  UNL1       -0.2317
     17 C         141.9492  139.7520  166.8265 C.ar    1  UNL1        0.0902
     18 C         141.7287  139.9501  168.2969 C.ar    1  UNL1        0.0562
     19 C         140.8236  141.2890  171.0411 C.3     1  UNL1        0.2525
     20 O         140.1138  140.1826  170.3187 O.3     1  UNL1       -0.4714
     21 O         143.2720  138.5629  158.0040 O.3     1  UNL1       -0.4791
     22 C         142.1024  138.3234  157.0958 C.3     1  UNL1        0.1687
     23 C         141.2074  139.4633  156.7089 C.3     1  UNL1        0.0609
     24 C         140.0378  139.2238  155.8008 C.3     1  UNL1        0.0758
     25 N         139.7632  137.8443  155.2795 N.3     1  UNL1       -0.2737
     26 C         140.6582  136.7044  155.6664 C.3     1  UNL1        0.0758
     27 C         141.8277  136.9439  156.5746 C.3     1  UNL1        0.0609
     28 C         138.5937  137.6048  154.3714 C.3     1  UNL1        0.0575
     29 C         138.4009  136.9297  153.0458 C.3     1  UNL1        0.0160
     30 C         136.9396  137.2660  153.0871 C.3     1  UNL1        0.0028
     31 C         137.1324  137.9411  154.4126 C.3     1  UNL1        0.0160
@<TRIPOS>BOND
     1    19    20    1
     2    20     7    1
     3     7     8   ar
     4     8     9   ar
     5     9    10   ar
     6    10    11   ar
     7    11    12    2
     8    11    13   ar
     9    13     1    1
    10     1     2   ar
    11     2     3   ar
    12     3     4   ar
    13     4    21    1
    14    21    22    1
    15    22    23    1
    16    23    24    1
    17    24    25    1
    18    25    28    1
    19    28    29    1
    20    29    30    1
    21    30    31    1
    22    25    26    1
    23    26    27    1
    24     4     5   ar
    25     5     6   ar
    26    13    14   ar
    27    14    15    1
    28    14    16   ar
    29    16    17   ar
    30    17    18   ar
    31    18     7   ar
    32    17    10   ar
    33     6     1   ar
    34    27    22    1
    35    31    28    1
@<TRIPOS>MOLECULE
*****
 31 35 0 0 0
SMALL
GASTEIGER

@<TRIPOS>ATOM
      1 C         142.5274  140.0359  162.2122 C.ar    1  UNL1        0.0681
      2 C         143.7059  139.4497  161.4927 C.ar    1  UNL1        0.0208
      3 C         143.7823  139.5208  159.9963 C.ar    1  UNL1        0.0384
      4 C         142.6802  140.1782  159.2194 C.ar    1  UNL1        0.1385
      5 C         141.5018  140.7643  159.9389 C.ar    1  UNL1        0.0384
      6 C         141.4254  140.6932  161.4353 C.ar    1  UNL1        0.0208
      7 C         142.6230  140.9354  169.0262 C.ar    1  UNL1        0.1402
      8 C         143.1008  142.1907  168.3585 C.ar    1  UNL1        0.0372
      9 C         143.1773  142.2618  166.8621 C.ar    1  UNL1        0.0094
     10 C         142.7759  141.0777  166.0335 C.ar    1  UNL1        0.0744
     11 C         142.8523  141.1488  164.5372 C.ar    1  UNL1        0.2670
     12 O         143.3301  142.4041  163.8694 O.2     1  UNL1       -0.2665
     13 N         142.4509  139.9647  163.7085 N.ar    1  UNL1       -0.2626
     14 C         141.9731  138.7093  164.3763 C.ar    1  UNL1        0.1268
     15 C         141.5717  137.5252  163.5476 C.3     1  UNL1        0.0723
     16 N         141.8966  138.6382  165.8726 N.ar    1  UNL1       -0.2317
     17 C         142.2981  139.8224  166.7012 C.ar    1  UNL1        0.0902
     18 C         142.2216  139.7513  168.1976 C.ar    1  UNL1        0.0562
     19 C         141.9215  141.9873  171.2959 C.3     1  UNL1        0.2525
     20 O         142.5466  140.8643  170.5226 O.3     1  UNL1       -0.4714
     21 O         142.7567  140.2493  157.7231 O.3     1  UNL1       -0.4791
     22 C         144.0447  140.6302  157.0552 C.3     1  UNL1        0.1687
     23 C         144.5671  139.8121  155.9116 C.3     1  UNL1        0.0609
     24 C         145.8551  140.1930  155.2437 C.3     1  UNL1        0.0758
     25 N         146.6206  141.3920  155.7194 N.3     1  UNL1       -0.2737
     26 C         146.0981  142.2101  156.8630 C.3     1  UNL1        0.0758
     27 C         144.8102  141.8292  157.5309 C.3     1  UNL1        0.0609
     28 C         147.9085  141.7729  155.0515 C.3     1  UNL1        0.0575
     29 C         149.3614  141.6616  155.4076 C.3     1  UNL1        0.0160
     30 C         149.7300  142.3116  154.1070 C.3     1  UNL1        0.0028
     31 C         148.2771  142.4230  153.7509 C.3     1  UNL1        0.0160
@<TRIPOS>BOND
     1    19    20    1
     2    20     7    1
     3     7     8   ar
     4     8     9   ar
     5     9    10   ar
     6    10    11   ar
     7    11    12    2
     8    11    13   ar
     9    13     1    1
    10     1     2   ar
    11     2     3   ar
    12     3     4   ar
    13     4    21    1
    14    21    22    1
    15    22    23    1
    16    23    24    1
    17    24    25    1
    18    25    28    1
    19    28    29    1
    20    29    30    1
    21    30    31    1
    22    25    26    1
    23    26    27    1
    24     4     5   ar
    25     5     6   ar
    26    13    14   ar
    27    14    15    1
    28    14    16   ar
    29    16    17   ar
    30    17    18   ar
    31    18     7   ar
    32    17    10   ar
    33     6     1   ar
    34    27    22    1
    35    31    28    1
@<TRIPOS>MOLECULE
*****
 31 35 0 0 0
SMALL
GASTEIGER

@<TRIPOS>ATOM
      1 C         142.2658  138.8265  159.4526 C.ar    1  UNL1        0.0681
      2 C         140.8183  139.2197  159.4702 C.ar    1  UNL1        0.0208
      3 C         139.9483  138.8263  160.6271 C.ar    1  UNL1        0.0384
      4 C         140.5258  138.0397  161.7663 C.ar    1  UNL1        0.1385
      5 C         141.9733  137.6466  161.7487 C.ar    1  UNL1        0.0384
      6 C         142.8432  138.0400  160.5918 C.ar    1  UNL1        0.0208
      7 C         146.5632  141.6559  154.8944 C.ar    1  UNL1        0.1402
      8 C         146.5107  142.5182  156.1206 C.ar    1  UNL1        0.0372
      9 C         145.6407  142.1248  157.2775 C.ar    1  UNL1        0.0094
     10 C         144.8232  140.8691  157.2082 C.ar    1  UNL1        0.0744
     11 C         143.9533  140.4756  158.3650 C.ar    1  UNL1        0.2670
     12 O         143.9008  141.3379  159.5913 O.2     1  UNL1       -0.2665
     13 N         143.1357  139.2200  158.2957 N.ar    1  UNL1       -0.2626
     14 C         143.1881  138.3576  157.0694 C.ar    1  UNL1        0.1268
     15 C         142.3706  137.1019  157.0001 C.3     1  UNL1        0.0723
     16 N         144.0581  138.7510  155.9125 N.ar    1  UNL1       -0.2317
     17 C         144.8757  140.0068  155.9819 C.ar    1  UNL1        0.0902
     18 C         145.7456  140.4002  154.8250 C.ar    1  UNL1        0.0562
     19 C         148.9175  141.8469  153.8125 C.3     1  UNL1        0.2525
     20 O         147.4331  142.0493  153.7375 O.3     1  UNL1       -0.4714
     21 O         139.6559  137.6463  162.9232 O.3     1  UNL1       -0.4791
     22 C         139.7174  138.4219  164.2057 C.3     1  UNL1        0.1687
     23 C         140.9869  138.4513  165.0042 C.3     1  UNL1        0.0609
     24 C         141.0484  139.2269  166.2867 C.3     1  UNL1        0.0758
     25 N         139.8405  139.9731  166.7707 N.3     1  UNL1       -0.2737
     26 C         138.5711  139.9437  165.9721 C.3     1  UNL1        0.0758
     27 C         138.5095  139.1681  164.6897 C.3     1  UNL1        0.0609
     28 C         139.9021  140.7486  168.0531 C.3     1  UNL1        0.0575
     29 C         139.5439  140.4658  169.4819 C.3     1  UNL1        0.0160
     30 C         139.9891  141.8455  169.8667 C.3     1  UNL1        0.0028
     31 C         140.3473  142.1284  168.4379 C.3     1  UNL1        0.0160
@<TRIPOS>BOND
     1    19    20    1
     2    20     7    1
     3     7     8   ar
     4     8     9   ar
     5     9    10   ar
     6    10    11   ar
     7    11    12    2
     8    11    13   ar
     9    13     1    1
    10     1     2   ar
    11     2     3   ar
    12     3     4   ar
    13     4    21    1
    14    21    22    1
    15    22    23    1
    16    23    24    1
    17    24    25    1
    18    25    28    1
    19    28    29    1
    20    29    30    1
    21    30    31    1
    22    25    26    1
    23    26    27    1
    24     4     5   ar
    25     5     6   ar
    26    13    14   ar
    27    14    15    1
    28    14    16   ar
    29    16    17   ar
    30    17    18   ar
    31    18     7   ar
    32    17    10   ar
    33     6     1   ar
    34    27    22    1
    35    31    28    1
@<TRIPOS>MOLECULE
*****
 31 35 0 0 0
SMALL
GASTEIGER

@<TRIPOS>ATOM
      1 C         141.0447  139.2378  161.6203 C.ar    1  UNL1        0.0681
      2 C         142.3767  139.3322  160.9369 C.ar    1  UNL1        0.0208
      3 C         142.4870  139.0534  159.4671 C.ar    1  UNL1        0.0384
      4 C         141.2652  138.6804  158.6808 C.ar    1  UNL1        0.1385
      5 C         139.9333  138.5861  159.3642 C.ar    1  UNL1        0.0384
      6 C         139.8231  138.8648  160.8339 C.ar    1  UNL1        0.0208
      7 C         140.4600  141.7643  167.9862 C.ar    1  UNL1        0.1402
      8 C         140.4265  142.8969  167.0034 C.ar    1  UNL1        0.0372
      9 C         140.5368  142.6182  165.5337 C.ar    1  UNL1        0.0094
     10 C         140.6805  141.2068  165.0467 C.ar    1  UNL1        0.0744
     11 C         140.7907  140.9280  163.5770 C.ar    1  UNL1        0.2670
     12 O         140.7573  142.0607  162.5942 O.2     1  UNL1       -0.2665
     13 N         140.9345  139.5166  163.0900 N.ar    1  UNL1       -0.2626
     14 C         140.9680  138.3838  164.0728 C.ar    1  UNL1        0.1268
     15 C         141.1117  136.9724  163.5858 C.3     1  UNL1        0.0723
     16 N         140.8577  138.6626  165.5426 N.ar    1  UNL1       -0.2317
     17 C         140.7140  140.0741  166.0295 C.ar    1  UNL1        0.0902
     18 C         140.6037  140.3528  167.4992 C.ar    1  UNL1        0.0562
     19 C         140.2791  143.4583  169.9477 C.3     1  UNL1        0.2525
     20 O         140.3497  142.0430  169.4560 O.3     1  UNL1       -0.4714
     21 O         141.3755  138.4016  157.2111 O.3     1  UNL1       -0.4791
     22 C         141.7440  137.0281  156.7338 C.3     1  UNL1        0.1687
     23 C         142.9449  136.3332  157.3036 C.3     1  UNL1        0.0609
     24 C         143.3134  134.9596  156.8263 C.3     1  UNL1        0.0758
     25 N         142.4808  134.2811  155.7792 N.3     1  UNL1       -0.2737
     26 C         141.2798  134.9761  155.2093 C.3     1  UNL1        0.0758
     27 C         140.9114  136.3495  155.6866 C.3     1  UNL1        0.0609
     28 C         142.8493  132.9077  155.3019 C.3     1  UNL1        0.0575
     29 C         144.0315  132.0027  155.4850 C.3     1  UNL1        0.0160
     30 C         143.3703  130.9653  154.6268 C.3     1  UNL1        0.0028
     31 C         142.1881  131.8702  154.4437 C.3     1  UNL1        0.0160
@<TRIPOS>BOND
     1    19    20    1
     2    20     7    1
     3     7     8   ar
     4     8     9   ar
     5     9    10   ar
     6    10    11   ar
     7    11    12    2
     8    11    13   ar
     9    13     1    1
    10     1     2   ar
    11     2     3   ar
    12     3     4   ar
    13     4    21    1
    14    21    22    1
    15    22    23    1
    16    23    24    1
    17    24    25    1
    18    25    28    1
    19    28    29    1
    20    29    30    1
    21    30    31    1
    22    25    26    1
    23    26    27    1
    24     4     5   ar
    25     5     6   ar
    26    13    14   ar
    27    14    15    1
    28    14    16   ar
    29    16    17   ar
    30    17    18   ar
    31    18     7   ar
    32    17    10   ar
    33     6     1   ar
    34    27    22    1
    35    31    28    1
