@<TRIPOS>MOLECULE
*****
 37 39 0 0 0
SMALL
GASTEIGER

@<TRIPOS>ATOM
      1 C         138.6994  140.2249  163.0629 C.3     1  UNL1        0.0927
      2 C         138.8910  138.8901  162.4059 C.3     1  UNL1        0.0777
      3 N         138.9588  137.6459  163.2409 N.3     1  UNL1       -0.2967
      4 C         138.8349  137.7364  164.7330 C.3     1  UNL1        0.0777
      5 C         138.6433  139.0711  165.3901 C.3     1  UNL1        0.0933
      6 C         138.5755  140.3154  164.5550 C.3     1  UNL1        0.0210
      7 H         139.8598  137.2093  163.0462 H       1  UNL1        0.1233
      8 N         139.8938  142.1759  161.8314 N.am    1  UNL1       -0.3035
      9 C         138.6316  141.4691  162.2278 C.2     1  UNL1        0.2234
     10 O         137.3017  142.0065  161.7893 O.2     1  UNL1       -0.2751
     11 H         140.7667  141.8232  162.1192 H       1  UNL1        0.1495
     12 C         139.8261  143.4201  160.9963 C.3     1  UNL1        0.1011
     13 C         139.9320  143.3278  159.5029 C.3     1  UNL1        0.1615
     14 O         138.7182  143.0031  158.6836 O.3     1  UNL1       -0.3520
     15 C         139.3419  140.4813  158.6508 C.3     1  UNL1        0.0346
     16 C         138.3333  141.5728  158.4476 C.3     1  UNL1        0.1423
     17 C         139.6524  144.7567  161.6547 C.3     1  UNL1        0.0221
     18 C         140.0973  144.9576  163.0731 C.3     1  UNL1        0.0017
     19 C         141.5161  145.3463  163.3661 C.3     1  UNL1        0.0001
     20 C         139.1234  144.7696  164.1984 C.3     1  UNL1        0.0001
     21 C         138.5194  139.1617  166.8822 C.2     1  UNL1        0.2312
     22 O         137.4116  138.4374  167.5882 O.2     1  UNL1       -0.2745
     23 N         139.5032  139.9765  167.6684 N.am    1  UNL1       -0.2454
     24 C         140.6109  140.7008  166.9625 C.ar    1  UNL1        0.1404
     25 C         141.7960  139.9393  166.4471 C.ar    1  UNL1        0.0712
     26 C         142.9037  140.6636  165.7412 C.ar    1  UNL1        0.1390
     27 C         142.8263  142.1495  165.5507 C.ar    1  UNL1        0.0307
     28 C         141.6413  142.9110  166.0661 C.ar    1  UNL1        0.0990
     29 N         140.5335  142.1866  166.7720 N.ar    1  UNL1       -0.2289
     30 C         143.9341  142.8738  164.8448 C.3     1  UNL1        0.0269
     31 C         144.8717  143.7499  165.6214 C.3     1  UNL1        0.0048
     32 C         144.1041  142.7219  163.3622 C.3     1  UNL1        0.0048
     33 O         144.0888  139.9021  165.2258 O.3     1  UNL1       -0.4716
     34 C         143.9732  139.0984  163.9646 C.3     1  UNL1        0.2525
     35 C         139.3793  140.0671  169.1606 C.3     1  UNL1        0.0812
     36 C         138.5340  140.2606  170.3845 C.3     1  UNL1        0.0219
     37 C         140.0099  140.0304  170.5211 C.3     1  UNL1        0.0219
@<TRIPOS>BOND
     1    15    16    1
     2    16    14    1
     3    14    13    1
     4    12    13    1
     5    12    17    1
     6    17    18    1
     7    18    19    1
     8    18    20    1
     9    12     8    1
    10     8     9   am
    11     9    10    2
    12     1     9    1
    13     1     2    1
    14     2     3    1
    15     3     4    1
    16     4     5    1
    17     5    21    1
    18    21    22    2
    19    21    23   am
    20    23    24    1
    21    24    25   ar
    22    25    26   ar
    23    26    33    1
    24    33    34    1
    25    26    27   ar
    26    27    30    1
    27    30    31    1
    28    30    32    1
    29    27    28   ar
    30    28    29   ar
    31    23    35    1
    32    35    36    1
    33    36    37    1
    34     5     6    1
    35     6     1    1
    36    29    24   ar
    37    37    35    1
    38     8    11    1
    39     3     7    1
@<TRIPOS>MOLECULE
*****
 37 39 0 0 0
SMALL
GASTEIGER

@<TRIPOS>ATOM
      1 C         138.6756  140.0516  162.9682 C.3     1  UNL1        0.0927
      2 C         138.9118  138.7040  162.3531 C.3     1  UNL1        0.0777
      3 N         139.0118  137.4883  163.2260 N.3     1  UNL1       -0.2967
      4 C         138.8756  137.6201  164.7140 C.3     1  UNL1        0.0777
      5 C         138.6395  138.9676  165.3290 C.3     1  UNL1        0.0933
      6 C         138.5395  140.1833  164.4562 C.3     1  UNL1        0.0210
      7 H         139.9268  137.0736  163.0497 H       1  UNL1        0.1233
      8 N         139.8149  141.8677  161.5008 N.am    1  UNL1       -0.3035
      9 C         138.5756  141.2673  162.0953 C.2     1  UNL1        0.2234
     10 O         137.2363  141.8827  161.8170 O.2     1  UNL1       -0.2751
     11 H         140.6940  141.4639  161.6834 H       1  UNL1        0.1495
     12 C         139.7150  143.0835  160.6279 C.3     1  UNL1        0.1011
     13 C         139.7561  144.4520  161.2405 C.3     1  UNL1        0.1615
     14 O         138.6971  144.8685  162.2177 O.3     1  UNL1       -0.3520
     15 C         137.9509  143.9974  164.5489 C.3     1  UNL1        0.0346
     16 C         138.9401  144.7296  163.6914 C.3     1  UNL1        0.1423
     17 C         139.5738  142.9306  159.1423 C.3     1  UNL1        0.0221
     18 C         139.4078  141.5664  158.5412 C.3     1  UNL1        0.0017
     19 C         138.0377  140.9745  158.3912 C.3     1  UNL1        0.0001
     20 C         140.6120  140.7941  158.0899 C.3     1  UNL1        0.0001
     21 C         138.5033  139.0994  166.8171 C.2     1  UNL1        0.2312
     22 O         137.4204  138.3546  167.5400 O.2     1  UNL1       -0.2745
     23 N         139.4500  139.9760  167.5821 N.am    1  UNL1       -0.2454
     24 C         140.5329  140.7207  166.8592 C.ar    1  UNL1        0.1404
     25 C         141.7578  139.9937  166.3888 C.ar    1  UNL1        0.0712
     26 C         142.8407  140.7385  165.6659 C.ar    1  UNL1        0.1390
     27 C         142.6987  142.2103  165.4134 C.ar    1  UNL1        0.0307
     28 C         141.4739  142.9373  165.8837 C.ar    1  UNL1        0.0990
     29 N         140.3910  142.1925  166.6067 N.ar    1  UNL1       -0.2289
     30 C         143.7817  142.9551  164.6905 C.3     1  UNL1        0.0269
     31 C         143.8816  142.8699  163.1962 C.3     1  UNL1        0.0048
     32 C         144.7646  143.7851  165.4618 C.3     1  UNL1        0.0048
     33 O         144.0655  140.0115  165.1955 O.3     1  UNL1       -0.4716
     34 C         144.0125  139.1831  163.9461 C.3     1  UNL1        0.2525
     35 C         139.3138  140.1078  169.0701 C.3     1  UNL1        0.0812
     36 C         138.4505  140.2637  170.2868 C.3     1  UNL1        0.0219
     37 C         139.9412  140.1803  170.4307 C.3     1  UNL1        0.0219
@<TRIPOS>BOND
     1    15    16    1
     2    16    14    1
     3    14    13    1
     4    12    13    1
     5    12    17    1
     6    17    18    1
     7    18    19    1
     8    18    20    1
     9    12     8    1
    10     8     9   am
    11     9    10    2
    12     1     9    1
    13     1     2    1
    14     2     3    1
    15     3     4    1
    16     4     5    1
    17     5    21    1
    18    21    22    2
    19    21    23   am
    20    23    24    1
    21    24    25   ar
    22    25    26   ar
    23    26    33    1
    24    33    34    1
    25    26    27   ar
    26    27    30    1
    27    30    31    1
    28    30    32    1
    29    27    28   ar
    30    28    29   ar
    31    23    35    1
    32    35    36    1
    33    36    37    1
    34     5     6    1
    35     6     1    1
    36    29    24   ar
    37    37    35    1
    38     8    11    1
    39     3     7    1
@<TRIPOS>MOLECULE
*****
 37 39 0 0 0
SMALL
GASTEIGER

@<TRIPOS>ATOM
      1 C         142.7121  138.7525  162.4114 C.3     1  UNL1        0.0927
      2 C         141.7468  137.6430  162.1161 C.3     1  UNL1        0.0777
      3 N         141.1498  136.8493  163.2402 N.3     1  UNL1       -0.2967
      4 C         141.5181  137.1651  164.6596 C.3     1  UNL1        0.0777
      5 C         142.4834  138.2746  164.9548 C.3     1  UNL1        0.0933
      6 C         143.0803  139.0683  163.8307 C.3     1  UNL1        0.0210
      7 H         141.4040  135.8746  163.0799 H       1  UNL1        0.1233
      8 N         142.7660  140.9050  160.9575 N.am    1  UNL1       -0.3035
      9 C         143.3091  139.5462  161.2873 C.2     1  UNL1        0.2234
     10 O         144.4491  138.9812  160.4929 O.2     1  UNL1       -0.2751
     11 H         142.0178  141.2759  161.4789 H       1  UNL1        0.1495
     12 C         143.3630  141.6988  159.8334 C.3     1  UNL1        0.1011
     13 C         144.5490  142.5817  160.0859 C.3     1  UNL1        0.1615
     14 O         144.7981  143.1281  161.4605 O.3     1  UNL1       -0.3520
     15 C         144.9416  142.3245  163.9269 C.3     1  UNL1        0.0346
     16 C         145.4283  142.2608  162.5095 C.3     1  UNL1        0.1423
     17 C         142.7740  141.6095  158.4567 C.3     1  UNL1        0.0221
     18 C         143.6685  141.6590  157.2536 C.3     1  UNL1        0.0017
     19 C         143.5710  142.8071  156.2933 C.3     1  UNL1        0.0001
     20 C         144.6605  140.5602  157.0109 C.3     1  UNL1        0.0001
     21 C         142.8517  138.5904  166.3742 C.2     1  UNL1        0.2312
     22 O         143.8546  137.7398  167.0958 O.2     1  UNL1       -0.2745
     23 N         142.2172  139.7567  167.0720 N.am    1  UNL1       -0.2454
     24 C         141.2143  140.6073  166.3504 C.ar    1  UNL1        0.1404
     25 C         141.6404  141.9034  165.7270 C.ar    1  UNL1        0.0712
     26 C         140.6375  142.7540  165.0054 C.ar    1  UNL1        0.1390
     27 C         139.2085  142.3085  164.9073 C.ar    1  UNL1        0.0307
     28 C         138.7824  141.0125  165.5307 C.ar    1  UNL1        0.0990
     29 N         139.7853  140.1619  166.2523 N.ar    1  UNL1       -0.2289
     30 C         138.2056  143.1591  164.1857 C.3     1  UNL1        0.0269
     31 C         137.6704  144.4011  164.8345 C.3     1  UNL1        0.0048
     32 C         137.7379  142.7677  162.8152 C.3     1  UNL1        0.0048
     33 O         141.0635  144.0501  164.3819 O.3     1  UNL1       -0.4716
     34 C         141.6269  144.0642  162.9918 C.3     1  UNL1        0.2525
     35 C         142.5855  140.0726  168.4914 C.3     1  UNL1        0.0812
     36 C         143.1189  141.0338  169.5119 C.3     1  UNL1        0.0219
     37 C         142.6901  139.6583  169.9293 C.3     1  UNL1        0.0219
@<TRIPOS>BOND
     1    15    16    1
     2    16    14    1
     3    14    13    1
     4    12    13    1
     5    12    17    1
     6    17    18    1
     7    18    19    1
     8    18    20    1
     9    12     8    1
    10     8     9   am
    11     9    10    2
    12     1     9    1
    13     1     2    1
    14     2     3    1
    15     3     4    1
    16     4     5    1
    17     5    21    1
    18    21    22    2
    19    21    23   am
    20    23    24    1
    21    24    25   ar
    22    25    26   ar
    23    26    33    1
    24    33    34    1
    25    26    27   ar
    26    27    30    1
    27    30    31    1
    28    30    32    1
    29    27    28   ar
    30    28    29   ar
    31    23    35    1
    32    35    36    1
    33    36    37    1
    34     5     6    1
    35     6     1    1
    36    29    24   ar
    37    37    35    1
    38     8    11    1
    39     3     7    1
@<TRIPOS>MOLECULE
*****
 37 39 0 0 0
SMALL
GASTEIGER

@<TRIPOS>ATOM
      1 C         142.3338  138.7095  162.7055 C.3     1  UNL1        0.0927
      2 C         143.6182  139.0851  162.0280 C.3     1  UNL1        0.0777
      3 N         144.8499  139.3418  162.8448 N.3     1  UNL1       -0.2967
      4 C         144.7970  139.2230  164.3392 C.3     1  UNL1        0.0777
      5 C         143.5126  138.8474  165.0167 C.3     1  UNL1        0.0933
      6 C         142.2810  138.5906  164.1998 C.3     1  UNL1        0.0210
      7 H         145.1487  140.2944  162.6356 H       1  UNL1        0.1233
      8 N         140.7275  139.3922  160.7810 N.am    1  UNL1       -0.3035
      9 C         141.1022  138.4528  161.8887 C.2     1  UNL1        0.2234
     10 O         140.2452  137.2566  162.1796 O.2     1  UNL1       -0.2751
     11 H         141.2900  140.1773  160.5901 H       1  UNL1        0.1495
     12 C         139.4959  139.1355  159.9642 C.3     1  UNL1        0.1011
     13 C         139.6007  138.4042  158.6588 C.3     1  UNL1        0.1615
     14 O         140.9474  138.0286  158.1155 O.3     1  UNL1       -0.3520
     15 C         142.6066  138.3826  156.1478 C.3     1  UNL1        0.0346
     16 C         141.6528  138.9447  157.1599 C.3     1  UNL1        0.1423
     17 C         138.1594  139.6100  160.4529 C.3     1  UNL1        0.0221
     18 C         138.0809  140.6222  161.5572 C.3     1  UNL1        0.0017
     19 C         138.1107  142.0869  161.2355 C.3     1  UNL1        0.0001
     20 C         137.9725  140.1695  162.9832 C.3     1  UNL1        0.0001
     21 C         143.4597  138.7285  166.5111 C.2     1  UNL1        0.2312
     22 O         144.2146  137.6327  167.2034 O.2     1  UNL1       -0.2745
     23 N         142.6520  139.7054  167.3130 N.am    1  UNL1       -0.2454
     24 C         141.8971  140.8012  166.6207 C.ar    1  UNL1        0.1404
     25 C         142.6385  141.9565  166.0159 C.ar    1  UNL1        0.0712
     26 C         141.8836  143.0523  165.3236 C.ar    1  UNL1        0.1390
     27 C         140.3873  142.9928  165.2360 C.ar    1  UNL1        0.0307
     28 C         139.6460  141.8375  165.8407 C.ar    1  UNL1        0.0990
     29 N         140.4009  140.7417  166.5330 N.ar    1  UNL1       -0.2289
     30 C         139.6324  144.0886  164.5436 C.3     1  UNL1        0.0269
     31 C         138.4804  144.7574  165.2332 C.3     1  UNL1        0.0048
     32 C         140.0296  144.5156  163.1615 C.3     1  UNL1        0.0048
     33 O         142.6249  144.2076  164.7189 O.3     1  UNL1       -0.4716
     34 C         143.6737  143.9620  163.6750 C.3     1  UNL1        0.2525
     35 C         142.5991  139.5865  168.8074 C.3     1  UNL1        0.0812
     36 C         142.3537  138.7635  170.0372 C.3     1  UNL1        0.0219
     37 C         142.7529  140.2036  170.1659 C.3     1  UNL1        0.0219
@<TRIPOS>BOND
     1    15    16    1
     2    16    14    1
     3    14    13    1
     4    12    13    1
     5    12    17    1
     6    17    18    1
     7    18    19    1
     8    18    20    1
     9    12     8    1
    10     8     9   am
    11     9    10    2
    12     1     9    1
    13     1     2    1
    14     2     3    1
    15     3     4    1
    16     4     5    1
    17     5    21    1
    18    21    22    2
    19    21    23   am
    20    23    24    1
    21    24    25   ar
    22    25    26   ar
    23    26    33    1
    24    33    34    1
    25    26    27   ar
    26    27    30    1
    27    30    31    1
    28    30    32    1
    29    27    28   ar
    30    28    29   ar
    31    23    35    1
    32    35    36    1
    33    36    37    1
    34     5     6    1
    35     6     1    1
    36    29    24   ar
    37    37    35    1
    38     8    11    1
    39     3     7    1
@<TRIPOS>MOLECULE
*****
 37 39 0 0 0
SMALL
GASTEIGER

@<TRIPOS>ATOM
      1 C         142.7809  138.8608  162.5816 C.3     1  UNL1        0.0927
      2 C         144.0424  139.5093  162.0937 C.3     1  UNL1        0.0777
      3 N         145.1136  139.8949  163.0703 N.3     1  UNL1       -0.2967
      4 C         144.9234  139.6320  164.5347 C.3     1  UNL1        0.0777
      5 C         143.6619  138.9835  165.0226 C.3     1  UNL1        0.0933
      6 C         142.5907  138.5979  164.0460 C.3     1  UNL1        0.0210
      7 H         145.2578  140.8995  162.9678 H       1  UNL1        0.1233
      8 N         141.5406  139.2507  160.3322 N.am    1  UNL1       -0.3035
      9 C         141.7096  138.4752  161.6050 C.2     1  UNL1        0.2234
     10 O         140.8074  137.3142  161.9012 O.2     1  UNL1       -0.2751
     11 H         142.1328  140.0128  160.1378 H       1  UNL1        0.1495
     12 C         140.4694  138.8651  159.3556 C.3     1  UNL1        0.1011
     13 C         140.8307  138.1385  158.0942 C.3     1  UNL1        0.1615
     14 O         142.2677  138.0254  157.6792 O.3     1  UNL1       -0.3520
     15 C         142.8283  135.6582  156.7670 C.3     1  UNL1        0.0346
     16 C         142.6507  137.1299  156.5383 C.3     1  UNL1        0.1423
     17 C         139.0367  139.2062  159.6406 C.3     1  UNL1        0.0221
     18 C         138.5025  140.5610  159.2813 C.3     1  UNL1        0.0017
     19 C         138.4963  141.6597  160.3025 C.3     1  UNL1        0.0001
     20 C         137.9745  140.8171  157.9008 C.3     1  UNL1        0.0001
     21 C         143.4717  138.7205  166.4871 C.2     1  UNL1        0.2312
     22 O         144.2403  137.6208  167.1577 O.2     1  UNL1       -0.2745
     23 N         142.5128  139.5573  167.2810 N.am    1  UNL1       -0.2454
     24 C         141.7441  140.6571  166.6104 C.ar    1  UNL1        0.1404
     25 C         140.3380  140.4150  166.1474 C.ar    1  UNL1        0.0712
     26 C         139.5693  141.5147  165.4769 C.ar    1  UNL1        0.1390
     27 C         140.2068  142.8566  165.2692 C.ar    1  UNL1        0.0307
     28 C         141.6128  143.0987  165.7322 C.ar    1  UNL1        0.0990
     29 N         142.3815  141.9989  166.4028 N.ar    1  UNL1       -0.2289
     30 C         139.4381  143.9564  164.5987 C.3     1  UNL1        0.0269
     31 C         139.4855  144.1027  163.1066 C.3     1  UNL1        0.0048
     32 C         138.6220  144.9099  165.4202 C.3     1  UNL1        0.0048
     33 O         138.1633  141.2726  165.0139 O.3     1  UNL1       -0.4716
     34 C         137.9066  140.4077  163.8156 C.3     1  UNL1        0.2525
     35 C         142.3225  139.2944  168.7455 C.3     1  UNL1        0.0812
     36 C         141.5689  139.5311  170.0206 C.3     1  UNL1        0.0219
     37 C         142.7466  138.6022  170.0069 C.3     1  UNL1        0.0219
@<TRIPOS>BOND
     1    15    16    1
     2    16    14    1
     3    14    13    1
     4    12    13    1
     5    12    17    1
     6    17    18    1
     7    18    19    1
     8    18    20    1
     9    12     8    1
    10     8     9   am
    11     9    10    2
    12     1     9    1
    13     1     2    1
    14     2     3    1
    15     3     4    1
    16     4     5    1
    17     5    21    1
    18    21    22    2
    19    21    23   am
    20    23    24    1
    21    24    25   ar
    22    25    26   ar
    23    26    33    1
    24    33    34    1
    25    26    27   ar
    26    27    30    1
    27    30    31    1
    28    30    32    1
    29    27    28   ar
    30    28    29   ar
    31    23    35    1
    32    35    36    1
    33    36    37    1
    34     5     6    1
    35     6     1    1
    36    29    24   ar
    37    37    35    1
    38     8    11    1
    39     3     7    1
@<TRIPOS>MOLECULE
*****
 37 39 0 0 0
SMALL
GASTEIGER

@<TRIPOS>ATOM
      1 C         143.0801  139.1969  162.3742 C.3     1  UNL1        0.0927
      2 C         142.1686  138.1044  161.8992 C.3     1  UNL1        0.0777
      3 N         141.5227  137.1825  162.8907 N.3     1  UNL1       -0.2967
      4 C         141.7883  137.3531  164.3570 C.3     1  UNL1        0.0777
      5 C         142.6998  138.4455  164.8320 C.3     1  UNL1        0.0933
      6 C         143.3457  139.3674  163.8406 C.3     1  UNL1        0.0210
      7 H         141.8149  136.2363  162.6466 H       1  UNL1        0.1233
      8 N         143.0911  140.3425  160.0424 N.am    1  UNL1       -0.3035
      9 C         143.7260  140.1188  161.3828 C.2     1  UNL1        0.2234
     10 O         145.0070  140.8169  161.7318 O.2     1  UNL1       -0.2751
     11 H         142.2503  139.8843  159.8134 H       1  UNL1        0.1495
     12 C         143.7370  141.2644  159.0510 C.3     1  UNL1        0.1011
     13 C         144.4015  140.7044  157.8285 C.3     1  UNL1        0.1615
     14 O         144.2963  141.4288  156.5192 O.3     1  UNL1       -0.3520
     15 C         146.6676  142.4344  156.8591 C.3     1  UNL1        0.0346
     16 C         145.4760  142.1841  155.9829 C.3     1  UNL1        0.1423
     17 C         143.7183  142.7465  159.2822 C.3     1  UNL1        0.0221
     18 C         142.5124  143.5506  158.8960 C.3     1  UNL1        0.0017
     19 C         142.5325  144.3794  157.6460 C.3     1  UNL1        0.0001
     20 C         141.2864  143.5259  159.7599 C.3     1  UNL1        0.0001
     21 C         142.9654  138.6161  166.2985 C.2     1  UNL1        0.2312
     22 O         143.9697  137.7391  166.9857 O.2     1  UNL1       -0.2745
     23 N         142.2269  139.6637  167.0776 N.am    1  UNL1       -0.2454
     24 C         141.2226  140.5407  166.3903 C.ar    1  UNL1        0.1404
     25 C         141.6211  141.9059  165.9132 C.ar    1  UNL1        0.0712
     26 C         140.6168  142.7829  165.2260 C.ar    1  UNL1        0.1390
     27 C         139.2141  142.2947  165.0158 C.ar    1  UNL1        0.0307
     28 C         138.8157  140.9296  165.4928 C.ar    1  UNL1        0.0990
     29 N         139.8199  140.0526  166.1801 N.ar    1  UNL1       -0.2289
     30 C         138.2098  143.1717  164.3285 C.3     1  UNL1        0.0269
     31 C         137.6981  144.4046  165.0126 C.3     1  UNL1        0.0048
     32 C         137.7173  142.8158  162.9571 C.3     1  UNL1        0.0048
     33 O         141.0152  144.1481  164.7489 O.3     1  UNL1       -0.4716
     34 C         141.6951  144.3099  163.4217 C.3     1  UNL1        0.2525
     35 C         142.4925  139.8343  168.5440 C.3     1  UNL1        0.0812
     36 C         142.9476  140.6868  169.6912 C.3     1  UNL1        0.0219
     37 C         142.4975  139.2772  169.9367 C.3     1  UNL1        0.0219
@<TRIPOS>BOND
     1    15    16    1
     2    16    14    1
     3    14    13    1
     4    12    13    1
     5    12    17    1
     6    17    18    1
     7    18    19    1
     8    18    20    1
     9    12     8    1
    10     8     9   am
    11     9    10    2
    12     1     9    1
    13     1     2    1
    14     2     3    1
    15     3     4    1
    16     4     5    1
    17     5    21    1
    18    21    22    2
    19    21    23   am
    20    23    24    1
    21    24    25   ar
    22    25    26   ar
    23    26    33    1
    24    33    34    1
    25    26    27   ar
    26    27    30    1
    27    30    31    1
    28    30    32    1
    29    27    28   ar
    30    28    29   ar
    31    23    35    1
    32    35    36    1
    33    36    37    1
    34     5     6    1
    35     6     1    1
    36    29    24   ar
    37    37    35    1
    38     8    11    1
    39     3     7    1
@<TRIPOS>MOLECULE
*****
 37 39 0 0 0
SMALL
GASTEIGER

@<TRIPOS>ATOM
      1 C         139.5474  143.1271  161.6745 C.3     1  UNL1        0.0927
      2 C         139.3297  144.5411  162.1249 C.3     1  UNL1        0.0777
      3 N         140.0771  145.6619  161.4652 N.3     1  UNL1       -0.2967
      4 C         141.0421  145.3686  160.3550 C.3     1  UNL1        0.0777
      5 C         141.2598  143.9545  159.9045 C.3     1  UNL1        0.0933
      6 C         140.5124  142.8338  160.5643 C.3     1  UNL1        0.0210
      7 H         140.6061  146.1346  162.1980 H       1  UNL1        0.1233
      8 N         139.5446  140.9704  163.1231 N.am    1  UNL1       -0.3035
      9 C         138.8000  142.0063  162.3343 C.2     1  UNL1        0.2234
     10 O         137.3080  141.9214  162.2052 O.2     1  UNL1       -0.2751
     11 H         140.5239  141.0260  163.2079 H       1  UNL1        0.1495
     12 C         138.7973  139.8496  163.7829 C.3     1  UNL1        0.1011
     13 C         138.7750  138.4891  163.1517 C.3     1  UNL1        0.1615
     14 O         139.9565  138.0093  162.3618 O.3     1  UNL1       -0.3520
     15 C         141.0697  137.1171  164.5331 C.3     1  UNL1        0.0346
     16 C         141.1472  137.4327  163.0688 C.3     1  UNL1        0.1423
     17 C         138.0721  140.0894  165.0740 C.3     1  UNL1        0.0221
     18 C         138.5096  139.3823  166.3224 C.3     1  UNL1        0.0017
     19 C         139.7673  139.8049  167.0221 C.3     1  UNL1        0.0001
     20 C         137.6894  138.2525  166.8711 C.3     1  UNL1        0.0001
     21 C         142.2249  143.6612  158.7943 C.2     1  UNL1        0.2312
     22 O         142.0460  144.3104  157.4539 O.2     1  UNL1       -0.2745
     23 N         143.3688  142.7186  159.0243 N.am    1  UNL1       -0.2454
     24 C         143.5477  142.0693  160.3647 C.ar    1  UNL1        0.1404
     25 C         144.1170  142.8551  161.5086 C.ar    1  UNL1        0.0712
     26 C         144.2959  142.2058  162.8490 C.ar    1  UNL1        0.1390
     27 C         143.9054  140.7708  163.0453 C.ar    1  UNL1        0.0307
     28 C         143.3362  139.9852  161.9013 C.ar    1  UNL1        0.0990
     29 N         143.1573  140.6344  160.5610 N.ar    1  UNL1       -0.2289
     30 C         144.0843  140.1215  164.3856 C.3     1  UNL1        0.0269
     31 C         145.2349  139.1880  164.6192 C.3     1  UNL1        0.0048
     32 C         143.1126  140.4059  165.4924 C.3     1  UNL1        0.0048
     33 O         144.8651  142.9914  163.9929 O.3     1  UNL1       -0.4716
     34 C         144.0707  144.1063  164.6060 C.3     1  UNL1        0.2525
     35 C         144.3339  142.4252  157.9141 C.3     1  UNL1        0.0812
     36 C         145.7421  142.3497  157.4030 C.3     1  UNL1        0.0219
     37 C         144.5972  141.9927  156.5021 C.3     1  UNL1        0.0219
@<TRIPOS>BOND
     1    15    16    1
     2    16    14    1
     3    14    13    1
     4    12    13    1
     5    12    17    1
     6    17    18    1
     7    18    19    1
     8    18    20    1
     9    12     8    1
    10     8     9   am
    11     9    10    2
    12     1     9    1
    13     1     2    1
    14     2     3    1
    15     3     4    1
    16     4     5    1
    17     5    21    1
    18    21    22    2
    19    21    23   am
    20    23    24    1
    21    24    25   ar
    22    25    26   ar
    23    26    33    1
    24    33    34    1
    25    26    27   ar
    26    27    30    1
    27    30    31    1
    28    30    32    1
    29    27    28   ar
    30    28    29   ar
    31    23    35    1
    32    35    36    1
    33    36    37    1
    34     5     6    1
    35     6     1    1
    36    29    24   ar
    37    37    35    1
    38     8    11    1
    39     3     7    1
@<TRIPOS>MOLECULE
*****
 37 39 0 0 0
SMALL
GASTEIGER

@<TRIPOS>ATOM
      1 C         143.7486  140.2988  164.9133 C.3     1  UNL1        0.0927
      2 C         143.9113  138.8179  165.0883 C.3     1  UNL1        0.0777
      3 N         143.5444  138.1719  166.3913 N.3     1  UNL1       -0.2967
      4 C         143.0149  139.0066  167.5195 C.3     1  UNL1        0.0777
      5 C         142.8522  140.4874  167.3445 C.3     1  UNL1        0.0933
      6 C         143.2191  141.1335  166.0415 C.3     1  UNL1        0.0210
      7 H         144.3847  137.7085  166.7371 H       1  UNL1        0.1233
      8 N         143.0548  141.2263  162.5878 N.am    1  UNL1       -0.3035
      9 C         144.1155  140.9448  163.6103 C.2     1  UNL1        0.2234
     10 O         145.5432  141.3095  163.3297 O.2     1  UNL1       -0.2751
     11 H         142.1177  140.9870  162.7720 H       1  UNL1        0.1495
     12 C         143.4217  141.8724  161.2847 C.3     1  UNL1        0.1011
     13 C         143.5316  141.0419  160.0406 C.3     1  UNL1        0.1615
     14 O         142.7031  139.8003  159.8919 O.3     1  UNL1       -0.3520
     15 C         143.8803  137.9823  161.3268 C.3     1  UNL1        0.0346
     16 C         143.3476  138.4506  160.0051 C.3     1  UNL1        0.1423
     17 C         143.6786  143.3491  161.2259 C.3     1  UNL1        0.0221
     18 C         142.9988  144.2679  162.1974 C.3     1  UNL1        0.0017
     19 C         141.5659  144.6570  161.9847 C.3     1  UNL1        0.0001
     20 C         143.7521  144.7976  163.3815 C.3     1  UNL1        0.0001
     21 C         142.3226  141.3223  168.4727 C.2     1  UNL1        0.2312
     22 O         143.0634  141.3787  169.7758 O.2     1  UNL1       -0.2745
     23 N         141.0524  142.1006  168.2977 N.am    1  UNL1       -0.2454
     24 C         140.3117  142.0442  166.9946 C.ar    1  UNL1        0.1404
     25 C         139.5514  140.8075  166.6170 C.ar    1  UNL1        0.0712
     26 C         138.8107  140.7511  165.3138 C.ar    1  UNL1        0.1390
     27 C         138.8303  141.9314  164.3883 C.ar    1  UNL1        0.0307
     28 C         139.5905  143.1680  164.7659 C.ar    1  UNL1        0.0990
     29 N         140.3313  143.2245  166.0691 N.ar    1  UNL1       -0.2289
     30 C         138.0896  141.8750  163.0852 C.3     1  UNL1        0.0269
     31 C         137.7262  143.1443  162.3734 C.3     1  UNL1        0.0048
     32 C         137.7122  140.5491  162.4938 C.3     1  UNL1        0.0048
     33 O         138.0505  139.5144  164.9362 O.3     1  UNL1       -0.4716
     34 C         138.6318  138.1609  165.2193 C.3     1  UNL1        0.2525
     35 C         140.5229  142.9355  169.4259 C.3     1  UNL1        0.0812
     36 C         139.7714  143.0448  170.7194 C.3     1  UNL1        0.0219
     37 C         140.3571  144.2720  170.0863 C.3     1  UNL1        0.0219
@<TRIPOS>BOND
     1    15    16    1
     2    16    14    1
     3    14    13    1
     4    12    13    1
     5    12    17    1
     6    17    18    1
     7    18    19    1
     8    18    20    1
     9    12     8    1
    10     8     9   am
    11     9    10    2
    12     1     9    1
    13     1     2    1
    14     2     3    1
    15     3     4    1
    16     4     5    1
    17     5    21    1
    18    21    22    2
    19    21    23   am
    20    23    24    1
    21    24    25   ar
    22    25    26   ar
    23    26    33    1
    24    33    34    1
    25    26    27   ar
    26    27    30    1
    27    30    31    1
    28    30    32    1
    29    27    28   ar
    30    28    29   ar
    31    23    35    1
    32    35    36    1
    33    36    37    1
    34     5     6    1
    35     6     1    1
    36    29    24   ar
    37    37    35    1
    38     8    11    1
    39     3     7    1
@<TRIPOS>MOLECULE
*****
 37 39 0 0 0
SMALL
GASTEIGER

@<TRIPOS>ATOM
      1 C         142.9420  142.9940  162.2436 C.3     1  UNL1        0.0927
      2 C         144.1394  142.4217  161.5446 C.3     1  UNL1        0.0777
      3 N         145.3579  142.0424  162.3330 N.3     1  UNL1       -0.2967
      4 C         145.3788  142.2353  163.8204 C.3     1  UNL1        0.0777
      5 C         144.1813  142.8075  164.5193 C.3     1  UNL1        0.0933
      6 C         142.9629  143.1869  163.7309 C.3     1  UNL1        0.0210
      7 H         146.1341  142.5852  161.9548 H       1  UNL1        0.1233
      8 N         140.6723  142.3454  161.1583 N.am    1  UNL1       -0.3035
      9 C         141.7236  143.3733  161.4551 C.2     1  UNL1        0.2234
     10 O         141.5565  144.7805  160.9635 O.2     1  UNL1       -0.2751
     11 H         140.7819  141.4218  161.4810 H       1  UNL1        0.1495
     12 C         139.4539  142.7247  160.3699 C.3     1  UNL1        0.1011
     13 C         139.5730  143.0315  158.9065 C.3     1  UNL1        0.1615
     14 O         139.6430  141.9133  157.9091 O.3     1  UNL1       -0.3520
     15 C         137.3574  142.6054  156.8858 C.3     1  UNL1        0.0346
     16 C         138.4512  141.5932  157.0564 C.3     1  UNL1        0.1423
     17 C         138.1163  142.7973  161.0450 C.3     1  UNL1        0.0221
     18 C         138.0222  143.2278  162.4788 C.3     1  UNL1        0.0017
     19 C         138.4843  144.5965  162.8828 C.3     1  UNL1        0.0001
     20 C         137.4661  142.2896  163.5087 C.3     1  UNL1        0.0001
     21 C         144.2022  143.0005  166.0068 C.2     1  UNL1        0.2312
     22 O         145.2015  143.9305  166.6284 O.2     1  UNL1       -0.2745
     23 N         143.2239  142.2634  166.8725 N.am    1  UNL1       -0.2454
     24 C         142.2246  141.3334  166.2508 C.ar    1  UNL1        0.1404
     25 C         142.6894  140.0833  165.5642 C.ar    1  UNL1        0.0712
     26 C         141.6901  139.1533  164.9426 C.ar    1  UNL1        0.1390
     27 C         140.2260  139.4733  165.0075 C.ar    1  UNL1        0.0307
     28 C         139.7613  140.7233  165.6942 C.ar    1  UNL1        0.0990
     29 N         140.7606  141.6533  166.3158 N.ar    1  UNL1       -0.2289
     30 C         139.2267  138.5433  164.3859 C.3     1  UNL1        0.0269
     31 C         138.7208  137.3611  165.1581 C.3     1  UNL1        0.0048
     32 C         138.7334  138.7954  162.9919 C.3     1  UNL1        0.0048
     33 O         142.1548  137.9033  164.2559 O.3     1  UNL1       -0.4716
     34 C         142.4682  137.9254  162.7892 C.3     1  UNL1        0.2525
     35 C         143.2448  142.4563  168.3599 C.3     1  UNL1        0.0812
     36 C         143.9920  142.4484  169.6605 C.3     1  UNL1        0.0219
     37 C         142.5337  142.7985  169.6356 C.3     1  UNL1        0.0219
@<TRIPOS>BOND
     1    15    16    1
     2    16    14    1
     3    14    13    1
     4    12    13    1
     5    12    17    1
     6    17    18    1
     7    18    19    1
     8    18    20    1
     9    12     8    1
    10     8     9   am
    11     9    10    2
    12     1     9    1
    13     1     2    1
    14     2     3    1
    15     3     4    1
    16     4     5    1
    17     5    21    1
    18    21    22    2
    19    21    23   am
    20    23    24    1
    21    24    25   ar
    22    25    26   ar
    23    26    33    1
    24    33    34    1
    25    26    27   ar
    26    27    30    1
    27    30    31    1
    28    30    32    1
    29    27    28   ar
    30    28    29   ar
    31    23    35    1
    32    35    36    1
    33    36    37    1
    34     5     6    1
    35     6     1    1
    36    29    24   ar
    37    37    35    1
    38     8    11    1
    39     3     7    1
