@<TRIPOS>MOLECULE
*****
 42 46 0 0 0
SMALL
GASTEIGER

@<TRIPOS>ATOM
      1 N         139.2509  138.0142  160.5606 N.pl3   1  UNL1       -0.2790
      2 H         138.8132  137.1665  160.3176 H       1  UNL1        0.1552
      3 C         139.7071  138.9574  159.4871 C.ar    1  UNL1        0.2383
      4 N         139.2248  138.7796  158.0779 N.ar    1  UNL1       -0.2093
      5 C         139.6810  139.7228  157.0045 C.ar    1  UNL1        0.1209
      6 C         140.6195  140.8437  157.3402 C.ar    1  UNL1        0.1021
      7 C         141.2363  141.9222  156.4996 C.ar    1  UNL1        0.0223
      8 C         142.0998  142.7665  157.3893 C.ar    1  UNL1        0.0208
      9 C         142.0167  142.2098  158.7797 C.ar    1  UNL1        0.0842
     10 N         141.1018  141.0215  158.7494 N.ar    1  UNL1       -0.2255
     11 N         140.6456  140.0783  159.8228 N.ar    1  UNL1       -0.1295
     12 C         142.7242  142.7471  159.9883 C.ar    1  UNL1        0.0326
     13 C         144.1161  142.2887  160.3082 C.ar    1  UNL1        0.0028
     14 C         144.8236  142.8260  161.5168 C.ar    1  UNL1        0.0001
     15 C         144.1392  143.8218  162.4056 C.ar    1  UNL1        0.0013
     16 C         142.7473  144.2803  162.0857 C.ar    1  UNL1        0.0162
     17 C         142.0398  143.7429  160.8771 C.ar    1  UNL1        0.0699
     18 N         140.6479  144.2015  160.5573 N.pl3   1  UNL1       -0.1925
     19 C         140.4352  145.4613  159.7715 C.3     1  UNL1        0.1388
     20 S         139.4686  143.4001  161.0234 S.O2    1  UNL1        0.0588
     21 C         138.2894  142.5988  161.4894 C.3     1  UNL1        0.1999
     22 O         138.9051  143.4210  159.6334 O.2     1  UNL1       -0.1542
     23 O         140.0321  143.3793  162.4133 O.2     1  UNL1       -0.1542
     24 C         140.7513  138.0048  162.6816 C.ar    1  UNL1        0.1533
     25 C         140.9620  138.3532  164.1253 C.ar    1  UNL1        0.0527
     26 C         139.8831  139.0594  164.8916 C.ar    1  UNL1        0.0510
     27 C         138.5935  139.4172  164.2143 C.ar    1  UNL1        0.0160
     28 C         138.3827  139.0688  162.7705 C.ar    1  UNL1        0.0190
     29 C         139.4616  138.3626  162.0042 C.ar    1  UNL1        0.0850
     30 N         140.0938  139.4079  166.3352 N.pl3   1  UNL1       -0.3046
     31 C         138.9163  139.5344  167.2558 C.3     1  UNL1        0.1081
     32 C         139.1271  139.8829  168.6996 C.3     1  UNL1        0.0939
     33 N         140.5153  140.1047  169.2226 N.3     1  UNL1       -0.2677
     34 C         141.6928  139.9781  168.3020 C.3     1  UNL1        0.0939
     35 C         141.4821  139.6297  166.8584 C.3     1  UNL1        0.1081
     36 C         140.7260  140.4531  170.6663 C.3     1  UNL1        0.1017
     37 C         140.9041  141.8856  171.0738 C.3     1  UNL1        0.1265
     38 C         139.8873  142.9121  170.6704 C.3     1  UNL1        0.0332
     39 O         142.0988  142.2917  171.8848 O.3     1  UNL1       -0.3830
     40 H         142.0611  143.2448  172.0610 H       1  UNL1        0.2104
     41 C         143.1471  137.9761  161.6770 C.3     1  UNL1        0.2525
     42 O         141.8302  137.2986  161.9153 O.3     1  UNL1       -0.4701
@<TRIPOS>BOND
     1    41    42    1
     2    42    24    1
     3    24    25   ar
     4    25    26   ar
     5    26    30    1
     6    30    31    1
     7    31    32    1
     8    32    33    1
     9    33    36    1
    10    36    37    1
    11    37    38    1
    12    37    39    1
    13    33    34    1
    14    34    35    1
    15    26    27   ar
    16    27    28   ar
    17    28    29   ar
    18    29     1    1
    19     1     3    1
    20     3     4   ar
    21     4     5   ar
    22     5     6   ar
    23     6     7   ar
    24     7     8   ar
    25     8     9   ar
    26     9    12    1
    27    12    13   ar
    28    13    14   ar
    29    14    15   ar
    30    15    16   ar
    31    16    17   ar
    32    17    18    1
    33    18    19    1
    34    18    20    1
    35    20    21    1
    36    20    22    2
    37    20    23    2
    38     9    10   ar
    39    10    11   ar
    40    29    24   ar
    41    11     3   ar
    42    35    30    1
    43    10     6   ar
    44    17    12   ar
    45    39    40    1
    46     1     2    1
@<TRIPOS>MOLECULE
*****
 42 46 0 0 0
SMALL
GASTEIGER

@<TRIPOS>ATOM
      1 N         142.5101  137.8014  160.6226 N.pl3   1  UNL1       -0.2790
      2 H         142.4974  136.8569  160.3452 H       1  UNL1        0.1552
      3 C         142.7885  138.8758  159.6135 C.ar    1  UNL1        0.2383
      4 N         143.2641  138.5088  158.2391 N.ar    1  UNL1       -0.2093
      5 C         143.5425  139.5832  157.2300 C.ar    1  UNL1        0.1209
      6 C         143.3452  141.0246  157.5954 C.ar    1  UNL1        0.1021
      7 C         143.5367  142.2926  156.8172 C.ar    1  UNL1        0.0223
      8 C         143.1795  143.4432  157.7107 C.ar    1  UNL1        0.0208
      9 C         142.7671  142.8864  159.0411 C.ar    1  UNL1        0.0842
     10 N         142.8696  141.3916  158.9698 N.ar    1  UNL1       -0.2255
     11 N         142.5912  140.3172  159.9788 N.ar    1  UNL1       -0.1295
     12 C         142.3292  143.6842  160.2334 C.ar    1  UNL1        0.0326
     13 C         143.1827  143.7202  161.4664 C.ar    1  UNL1        0.0028
     14 C         142.7448  144.5180  162.6587 C.ar    1  UNL1        0.0001
     15 C         141.4534  145.2800  162.6181 C.ar    1  UNL1        0.0013
     16 C         140.5999  145.2440  161.3851 C.ar    1  UNL1        0.0162
     17 C         141.0378  144.4462  160.1928 C.ar    1  UNL1        0.0699
     18 N         140.1843  144.4102  158.9599 N.pl3   1  UNL1       -0.1925
     19 C         140.2132  145.5575  157.9939 C.3     1  UNL1        0.1388
     20 S         139.3017  143.2271  158.6928 S.O2    1  UNL1        0.0588
     21 C         138.4192  142.0440  158.4258 C.3     1  UNL1        0.1999
     22 O         139.8217  143.1564  157.2876 O.2     1  UNL1       -0.1542
     23 O         138.7818  143.2978  160.0981 O.2     1  UNL1       -0.1542
     24 C         140.8537  138.1233  162.5982 C.ar    1  UNL1        0.1533
     25 C         140.5947  138.4880  164.0299 C.ar    1  UNL1        0.0527
     26 C         141.7329  138.8955  164.9178 C.ar    1  UNL1        0.0510
     27 C         143.1302  138.9384  164.3740 C.ar    1  UNL1        0.0160
     28 C         143.3893  138.5737  162.9422 C.ar    1  UNL1        0.0190
     29 C         142.2511  138.1661  162.0543 C.ar    1  UNL1        0.0850
     30 N         141.4739  139.2602  166.3495 N.pl3   1  UNL1       -0.3046
     31 C         140.0860  139.6160  166.7935 C.3     1  UNL1        0.1081
     32 C         139.8270  139.9807  168.2253 C.3     1  UNL1        0.0939
     33 N         140.9558  139.9896  169.2130 N.3     1  UNL1       -0.2677
     34 C         142.3437  139.6339  168.7690 C.3     1  UNL1        0.0939
     35 C         142.6028  139.2692  167.3372 C.3     1  UNL1        0.1081
     36 C         140.6968  140.3543  170.6447 C.3     1  UNL1        0.1017
     37 C         140.8491  141.7768  171.0957 C.3     1  UNL1        0.1265
     38 C         139.8838  142.8219  170.6201 C.3     1  UNL1        0.0332
     39 O         141.9667  142.1542  172.0222 O.3     1  UNL1       -0.3830
     40 H         141.9215  143.1041  172.2133 H       1  UNL1        0.2104
     41 C         138.3021  137.9970  162.1260 C.3     1  UNL1        0.2525
     42 O         139.7155  137.7157  161.7103 O.3     1  UNL1       -0.4701
@<TRIPOS>BOND
     1    41    42    1
     2    42    24    1
     3    24    25   ar
     4    25    26   ar
     5    26    30    1
     6    30    31    1
     7    31    32    1
     8    32    33    1
     9    33    36    1
    10    36    37    1
    11    37    38    1
    12    37    39    1
    13    33    34    1
    14    34    35    1
    15    26    27   ar
    16    27    28   ar
    17    28    29   ar
    18    29     1    1
    19     1     3    1
    20     3     4   ar
    21     4     5   ar
    22     5     6   ar
    23     6     7   ar
    24     7     8   ar
    25     8     9   ar
    26     9    12    1
    27    12    13   ar
    28    13    14   ar
    29    14    15   ar
    30    15    16   ar
    31    16    17   ar
    32    17    18    1
    33    18    19    1
    34    18    20    1
    35    20    21    1
    36    20    22    2
    37    20    23    2
    38     9    10   ar
    39    10    11   ar
    40    29    24   ar
    41    11     3   ar
    42    35    30    1
    43    10     6   ar
    44    17    12   ar
    45    39    40    1
    46     1     2    1
@<TRIPOS>MOLECULE
*****
 42 46 0 0 0
SMALL
GASTEIGER

@<TRIPOS>ATOM
      1 N         143.2485  137.4676  160.8760 N.pl3   1  UNL1       -0.2790
      2 H         143.6811  136.5880  160.7839 H       1  UNL1        0.1552
      3 C         142.6901  138.1589  159.6675 C.ar    1  UNL1        0.2383
      4 N         142.9747  137.6202  158.2969 N.ar    1  UNL1       -0.2093
      5 C         142.4163  138.3115  157.0885 C.ar    1  UNL1        0.1209
      6 C         141.5734  139.5416  157.2508 C.ar    1  UNL1        0.1021
      7 C         140.8919  140.4302  156.2527 C.ar    1  UNL1        0.0223
      8 C         140.1861  141.5181  157.0066 C.ar    1  UNL1        0.0208
      9 C         140.4315  141.3019  158.4706 C.ar    1  UNL1        0.0842
     10 N         141.2888  140.0804  158.6214 N.ar    1  UNL1       -0.2255
     11 N         141.8472  139.3890  159.8298 N.ar    1  UNL1       -0.1295
     12 C         139.9108  142.1570  159.5875 C.ar    1  UNL1        0.0326
     13 C         138.6722  141.7500  160.3291 C.ar    1  UNL1        0.0028
     14 C         138.1516  142.6051  161.4461 C.ar    1  UNL1        0.0001
     15 C         138.8696  143.8674  161.8215 C.ar    1  UNL1        0.0013
     16 C         140.1082  144.2745  161.0799 C.ar    1  UNL1        0.0162
     17 C         140.6289  143.4194  159.9630 C.ar    1  UNL1        0.0699
     18 N         141.8675  143.8265  159.2214 N.pl3   1  UNL1       -0.1925
     19 C         141.8125  144.9503  158.2294 C.3     1  UNL1        0.1388
     20 S         143.1613  143.1099  159.4719 S.O2    1  UNL1        0.0588
     21 C         144.4550  142.3933  159.7224 C.3     1  UNL1        0.1999
     22 O         142.9869  143.3111  160.9481 O.2     1  UNL1       -0.1542
     23 O         143.3356  142.9087  157.9958 O.2     1  UNL1       -0.1542
     24 C         141.8901  137.9800  163.0306 C.ar    1  UNL1        0.1533
     25 C         141.7894  138.6288  164.3792 C.ar    1  UNL1        0.0527
     26 C         142.9465  139.4140  164.9220 C.ar    1  UNL1        0.0510
     27 C         144.2043  139.5504  164.1161 C.ar    1  UNL1        0.0160
     28 C         144.3050  138.9015  162.7674 C.ar    1  UNL1        0.0190
     29 C         143.1479  138.1163  162.2246 C.ar    1  UNL1        0.0850
     30 N         142.8459  140.0628  166.2706 N.pl3   1  UNL1       -0.3046
     31 C         142.6518  139.2196  167.4960 C.3     1  UNL1        0.1081
     32 C         142.5512  139.8685  168.8446 C.3     1  UNL1        0.0939
     33 N         142.6446  141.3604  168.9680 N.3     1  UNL1       -0.2677
     34 C         142.8387  142.2036  167.7427 C.3     1  UNL1        0.0939
     35 C         142.9393  141.5548  166.3940 C.3     1  UNL1        0.1081
     36 C         142.5439  142.0092  170.3166 C.3     1  UNL1        0.1017
     37 C         141.2412  142.5985  170.7701 C.3     1  UNL1        0.1265
     38 C         140.5544  143.6350  169.9310 C.3     1  UNL1        0.0332
     39 O         140.6253  142.1512  172.0626 O.3     1  UNL1       -0.3830
     40 H         139.7922  142.6271  172.2055 H       1  UNL1        0.2104
     41 C         139.3286  137.5934  162.8323 C.3     1  UNL1        0.2525
     42 O         140.7330  137.1948  162.4878 O.3     1  UNL1       -0.4701
@<TRIPOS>BOND
     1    41    42    1
     2    42    24    1
     3    24    25   ar
     4    25    26   ar
     5    26    30    1
     6    30    31    1
     7    31    32    1
     8    32    33    1
     9    33    36    1
    10    36    37    1
    11    37    38    1
    12    37    39    1
    13    33    34    1
    14    34    35    1
    15    26    27   ar
    16    27    28   ar
    17    28    29   ar
    18    29     1    1
    19     1     3    1
    20     3     4   ar
    21     4     5   ar
    22     5     6   ar
    23     6     7   ar
    24     7     8   ar
    25     8     9   ar
    26     9    12    1
    27    12    13   ar
    28    13    14   ar
    29    14    15   ar
    30    15    16   ar
    31    16    17   ar
    32    17    18    1
    33    18    19    1
    34    18    20    1
    35    20    21    1
    36    20    22    2
    37    20    23    2
    38     9    10   ar
    39    10    11   ar
    40    29    24   ar
    41    11     3   ar
    42    35    30    1
    43    10     6   ar
    44    17    12   ar
    45    39    40    1
    46     1     2    1
@<TRIPOS>MOLECULE
*****
 42 46 0 0 0
SMALL
GASTEIGER

@<TRIPOS>ATOM
      1 N         140.1879  138.2607  161.5465 N.pl3   1  UNL1       -0.2790
      2 H         139.6362  137.5268  161.1911 H       1  UNL1        0.1552
      3 C         139.9962  138.7267  162.9594 C.ar    1  UNL1        0.2383
      4 N         139.2370  137.8753  163.9335 N.ar    1  UNL1       -0.2093
      5 C         139.0454  138.3413  165.3463 C.ar    1  UNL1        0.1209
      6 C         139.6129  139.6587  165.7850 C.ar    1  UNL1        0.1021
      7 C         139.5847  140.3748  167.1028 C.ar    1  UNL1        0.0223
      8 C         140.3264  141.6687  166.9431 C.ar    1  UNL1        0.0208
      9 C         140.8131  141.7523  165.5267 C.ar    1  UNL1        0.0842
     10 N         140.3721  140.5100  164.8110 N.ar    1  UNL1       -0.2255
     11 N         140.5637  140.0440  163.3982 N.ar    1  UNL1       -0.1295
     12 C         141.6022  142.8801  164.9306 C.ar    1  UNL1        0.0326
     13 C         143.1011  142.8238  164.9209 C.ar    1  UNL1        0.0028
     14 C         143.8901  143.9516  164.3248 C.ar    1  UNL1        0.0001
     15 C         143.1803  145.1359  163.7384 C.ar    1  UNL1        0.0013
     16 C         141.6815  145.1922  163.7482 C.ar    1  UNL1        0.0162
     17 C         140.8924  144.0643  164.3443 C.ar    1  UNL1        0.0699
     18 N         139.3935  144.1207  164.3540 N.pl3   1  UNL1       -0.1925
     19 C         138.6803  144.9343  165.3929 C.3     1  UNL1        0.1388
     20 S         138.6078  143.3635  163.3247 S.O2    1  UNL1        0.0588
     21 C         137.8221  142.6063  162.2955 C.3     1  UNL1        0.1999
     22 O         139.4164  144.0044  162.2360 O.2     1  UNL1       -0.1542
     23 O         137.7992  142.7226  164.4135 O.2     1  UNL1       -0.1542
     24 C         142.6761  138.7830  161.0117 C.ar    1  UNL1        0.1533
     25 C         143.7083  139.4351  160.1403 C.ar    1  UNL1        0.0527
     26 C         143.2845  140.2172  158.9325 C.ar    1  UNL1        0.0510
     27 C         141.8285  140.3471  158.5960 C.ar    1  UNL1        0.0160
     28 C         140.7963  139.6949  159.4674 C.ar    1  UNL1        0.0190
     29 C         141.2200  138.9128  160.6752 C.ar    1  UNL1        0.0850
     30 N         144.3167  140.8693  158.0612 N.pl3   1  UNL1       -0.3046
     31 C         144.6612  140.2703  156.7299 C.3     1  UNL1        0.1081
     32 C         145.6934  140.9226  155.8585 C.3     1  UNL1        0.0939
     33 N         146.3811  142.1737  156.3186 N.3     1  UNL1       -0.2677
     34 C         146.0366  142.7727  157.6499 C.3     1  UNL1        0.0939
     35 C         145.0044  142.1206  158.5212 C.3     1  UNL1        0.1081
     36 C         147.4133  142.8259  155.4472 C.3     1  UNL1        0.1017
     37 C         146.9883  143.7454  154.3409 C.3     1  UNL1        0.1265
     38 C         147.9528  144.0997  153.2480 C.3     1  UNL1        0.0332
     39 O         145.5990  144.3107  154.3275 O.3     1  UNL1       -0.3830
     40 H         145.4894  144.8809  153.5505 H       1  UNL1        0.2104
     41 C         143.8027  138.6906  163.3509 C.3     1  UNL1        0.2525
     42 O         143.0999  138.0009  162.2195 O.3     1  UNL1       -0.4701
@<TRIPOS>BOND
     1    41    42    1
     2    42    24    1
     3    24    25   ar
     4    25    26   ar
     5    26    30    1
     6    30    31    1
     7    31    32    1
     8    32    33    1
     9    33    36    1
    10    36    37    1
    11    37    38    1
    12    37    39    1
    13    33    34    1
    14    34    35    1
    15    26    27   ar
    16    27    28   ar
    17    28    29   ar
    18    29     1    1
    19     1     3    1
    20     3     4   ar
    21     4     5   ar
    22     5     6   ar
    23     6     7   ar
    24     7     8   ar
    25     8     9   ar
    26     9    12    1
    27    12    13   ar
    28    13    14   ar
    29    14    15   ar
    30    15    16   ar
    31    16    17   ar
    32    17    18    1
    33    18    19    1
    34    18    20    1
    35    20    21    1
    36    20    22    2
    37    20    23    2
    38     9    10   ar
    39    10    11   ar
    40    29    24   ar
    41    11     3   ar
    42    35    30    1
    43    10     6   ar
    44    17    12   ar
    45    39    40    1
    46     1     2    1
@<TRIPOS>MOLECULE
*****
 42 46 0 0 0
SMALL
GASTEIGER

@<TRIPOS>ATOM
      1 N         138.9478  142.9798  159.8530 N.pl3   1  UNL1       -0.2790
      2 H         138.5396  143.6710  159.2830 H       1  UNL1        0.1552
      3 C         139.0190  143.1783  161.3381 C.ar    1  UNL1        0.2383
      4 N         137.8735  143.8179  162.0651 N.ar    1  UNL1       -0.2093
      5 C         137.9448  144.0164  163.5502 C.ar    1  UNL1        0.1209
      6 C         139.1617  143.5753  164.3082 C.ar    1  UNL1        0.1021
      7 C         139.5150  143.6398  165.7647 C.ar    1  UNL1        0.0223
      8 C         140.8789  143.0400  165.9377 C.ar    1  UNL1        0.0208
      9 C         141.3685  142.6049  164.5883 C.ar    1  UNL1        0.0842
     10 N         140.3072  142.9357  163.5812 N.ar    1  UNL1       -0.2255
     11 N         140.2359  142.7372  162.0962 N.ar    1  UNL1       -0.1295
     12 C         142.6879  141.9533  164.2970 C.ar    1  UNL1        0.0326
     13 C         143.9539  142.7536  164.3787 C.ar    1  UNL1        0.0028
     14 C         145.2732  142.1021  164.0874 C.ar    1  UNL1        0.0001
     15 C         145.3265  140.6501  163.7145 C.ar    1  UNL1        0.0013
     16 C         144.0605  139.8498  163.6328 C.ar    1  UNL1        0.0162
     17 C         142.7412  140.5014  163.9241 C.ar    1  UNL1        0.0699
     18 N         141.4752  139.7010  163.8424 N.pl3   1  UNL1       -0.1925
     19 C         141.0217  139.1473  162.5242 C.3     1  UNL1        0.1388
     20 S         140.6627  139.4544  165.0790 S.O2    1  UNL1        0.0588
     21 C         139.8503  139.2078  166.3155 C.3     1  UNL1        0.1999
     22 O         141.9081  139.0672  165.8200 O.2     1  UNL1       -0.1542
     23 O         139.4174  139.8416  164.3379 O.2     1  UNL1       -0.1542
     24 C         138.8257  140.4107  159.4855 C.ar    1  UNL1        0.1533
     25 C         139.3762  139.1591  158.8688 C.ar    1  UNL1        0.0527
     26 C         140.5994  139.2248  158.0030 C.ar    1  UNL1        0.0510
     27 C         141.2720  140.5422  157.7539 C.ar    1  UNL1        0.0160
     28 C         140.7215  141.7939  158.3705 C.ar    1  UNL1        0.0190
     29 C         139.4983  141.7282  159.2363 C.ar    1  UNL1        0.0850
     30 N         141.1499  137.9732  157.3864 N.pl3   1  UNL1       -0.3046
     31 C         142.4627  137.4202  157.8564 C.3     1  UNL1        0.1081
     32 C         143.0132  136.1685  157.2397 C.3     1  UNL1        0.0939
     33 N         142.2510  135.4699  156.1531 N.3     1  UNL1       -0.2677
     34 C         140.9382  136.0228  155.6831 C.3     1  UNL1        0.0939
     35 C         140.3877  137.2744  156.2997 C.3     1  UNL1        0.1081
     36 C         142.8015  134.2182  155.5364 C.3     1  UNL1        0.1017
     37 C         142.4391  132.8790  156.1067 C.3     1  UNL1        0.1265
     38 C         141.7429  131.8629  155.2507 C.3     1  UNL1        0.0332
     39 O         142.7729  132.5560  157.5330 O.3     1  UNL1       -0.3830
     40 H         142.4722  131.6573  157.7398 H       1  UNL1        0.2104
     41 C         137.4823  139.2793  161.3999 C.3     1  UNL1        0.2525
     42 O         137.6025  140.3450  160.3513 O.3     1  UNL1       -0.4701
@<TRIPOS>BOND
     1    41    42    1
     2    42    24    1
     3    24    25   ar
     4    25    26   ar
     5    26    30    1
     6    30    31    1
     7    31    32    1
     8    32    33    1
     9    33    36    1
    10    36    37    1
    11    37    38    1
    12    37    39    1
    13    33    34    1
    14    34    35    1
    15    26    27   ar
    16    27    28   ar
    17    28    29   ar
    18    29     1    1
    19     1     3    1
    20     3     4   ar
    21     4     5   ar
    22     5     6   ar
    23     6     7   ar
    24     7     8   ar
    25     8     9   ar
    26     9    12    1
    27    12    13   ar
    28    13    14   ar
    29    14    15   ar
    30    15    16   ar
    31    16    17   ar
    32    17    18    1
    33    18    19    1
    34    18    20    1
    35    20    21    1
    36    20    22    2
    37    20    23    2
    38     9    10   ar
    39    10    11   ar
    40    29    24   ar
    41    11     3   ar
    42    35    30    1
    43    10     6   ar
    44    17    12   ar
    45    39    40    1
    46     1     2    1
@<TRIPOS>MOLECULE
*****
 42 46 0 0 0
SMALL
GASTEIGER

@<TRIPOS>ATOM
      1 N         144.3493  140.0178  161.7635 N.pl3   1  UNL1       -0.2790
      2 H         145.1389  139.5489  161.4087 H       1  UNL1        0.1552
      3 C         143.9499  139.8345  163.1977 C.ar    1  UNL1        0.2383
      4 N         144.7797  138.9735  164.1033 N.ar    1  UNL1       -0.2093
      5 C         144.3803  138.7903  165.5374 C.ar    1  UNL1        0.1209
      6 C         143.1510  139.4680  166.0660 C.ar    1  UNL1        0.1021
      7 C         142.5131  139.4735  167.4237 C.ar    1  UNL1        0.0223
      8 C         141.2890  140.3378  167.3572 C.ar    1  UNL1        0.0208
      9 C         141.1704  140.8666  165.9585 C.ar    1  UNL1        0.0842
     10 N         142.3211  140.3290  165.1605 N.ar    1  UNL1       -0.2255
     11 N         142.7205  140.5122  163.7264 N.ar    1  UNL1       -0.1295
     12 C         140.0905  141.7736  165.4475 C.ar    1  UNL1        0.0326
     13 C         140.3096  143.2572  165.4163 C.ar    1  UNL1        0.0028
     14 C         139.2298  144.1643  164.9053 C.ar    1  UNL1        0.0001
     15 C         137.9308  143.5878  164.4254 C.ar    1  UNL1        0.0013
     16 C         137.7117  142.1042  164.4565 C.ar    1  UNL1        0.0162
     17 C         138.7915  141.1971  164.9676 C.ar    1  UNL1        0.0699
     18 N         138.5724  139.7136  164.9987 N.pl3   1  UNL1       -0.1925
     19 C         137.9832  139.0679  166.2177 C.3     1  UNL1        0.1388
     20 S         138.9424  138.8757  163.8108 S.O2    1  UNL1        0.0588
     21 C         139.3125  138.0378  162.6230 C.3     1  UNL1        0.1999
     22 O         139.8650  138.0639  164.6709 O.2     1  UNL1       -0.1542
     23 O         138.0198  139.6876  162.9508 O.2     1  UNL1       -0.1542
     24 C         142.4402  140.3447  160.0318 C.ar    1  UNL1        0.1533
     25 C         141.6366  141.2423  159.1383 C.ar    1  UNL1        0.0527
     26 C         141.9383  142.7106  159.0829 C.ar    1  UNL1        0.0510
     27 C         143.0436  143.2813  159.9210 C.ar    1  UNL1        0.0160
     28 C         143.8473  142.3837  160.8146 C.ar    1  UNL1        0.0190
     29 C         143.5456  140.9154  160.8700 C.ar    1  UNL1        0.0850
     30 N         141.1346  143.6082  158.1894 N.pl3   1  UNL1       -0.3046
     31 C         140.1066  143.0230  157.2670 C.3     1  UNL1        0.1081
     32 C         139.3029  143.9207  156.3735 C.3     1  UNL1        0.0939
     33 N         139.5273  145.4035  156.4023 N.3     1  UNL1       -0.2677
     34 C         140.5553  145.9887  157.3246 C.3     1  UNL1        0.0939
     35 C         141.3590  145.0911  158.2182 C.3     1  UNL1        0.1081
     36 C         138.7237  146.3011  155.5088 C.3     1  UNL1        0.1017
     37 C         138.9806  147.7789  155.5032 C.3     1  UNL1        0.1265
     38 C         139.8567  148.3839  154.4465 C.3     1  UNL1        0.0332
     39 O         138.3615  148.6517  156.5543 O.3     1  UNL1       -0.3830
     40 H         138.6268  149.5730  156.4069 H       1  UNL1        0.2104
     41 C         142.6263  137.9689  158.9970 C.3     1  UNL1        0.2525
     42 O         142.1386  138.8764  160.0872 O.3     1  UNL1       -0.4701
@<TRIPOS>BOND
     1    41    42    1
     2    42    24    1
     3    24    25   ar
     4    25    26   ar
     5    26    30    1
     6    30    31    1
     7    31    32    1
     8    32    33    1
     9    33    36    1
    10    36    37    1
    11    37    38    1
    12    37    39    1
    13    33    34    1
    14    34    35    1
    15    26    27   ar
    16    27    28   ar
    17    28    29   ar
    18    29     1    1
    19     1     3    1
    20     3     4   ar
    21     4     5   ar
    22     5     6   ar
    23     6     7   ar
    24     7     8   ar
    25     8     9   ar
    26     9    12    1
    27    12    13   ar
    28    13    14   ar
    29    14    15   ar
    30    15    16   ar
    31    16    17   ar
    32    17    18    1
    33    18    19    1
    34    18    20    1
    35    20    21    1
    36    20    22    2
    37    20    23    2
    38     9    10   ar
    39    10    11   ar
    40    29    24   ar
    41    11     3   ar
    42    35    30    1
    43    10     6   ar
    44    17    12   ar
    45    39    40    1
    46     1     2    1
@<TRIPOS>MOLECULE
*****
 42 46 0 0 0
SMALL
GASTEIGER

@<TRIPOS>ATOM
      1 N         138.4557  142.7868  159.7335 N.pl3   1  UNL1       -0.2790
      2 H         137.7875  143.2982  159.2223 H       1  UNL1        0.1552
      3 C         138.8411  143.2271  161.1147 C.ar    1  UNL1        0.2383
      4 N         139.1024  144.6775  161.3940 N.ar    1  UNL1       -0.2093
      5 C         139.4878  145.1177  162.7752 C.ar    1  UNL1        0.1209
      6 C         139.6120  144.1075  163.8770 C.ar    1  UNL1        0.1021
      7 C         139.9725  144.2428  165.3268 C.ar    1  UNL1        0.0223
      8 C         139.9341  142.8759  165.9435 C.ar    1  UNL1        0.0208
      9 C         139.5497  141.8959  164.8748 C.ar    1  UNL1        0.0842
     10 N         139.3507  142.6571  163.5977 N.ar    1  UNL1       -0.2255
     11 N         138.9652  142.2169  162.2166 N.ar    1  UNL1       -0.1295
     12 C         139.3921  140.4148  165.0522 C.ar    1  UNL1        0.0326
     13 C         138.2572  139.8739  165.8703 C.ar    1  UNL1        0.0028
     14 C         138.0996  138.3928  166.0477 C.ar    1  UNL1        0.0001
     15 C         139.0770  137.4525  165.4068 C.ar    1  UNL1        0.0013
     16 C         140.2118  137.9934  164.5886 C.ar    1  UNL1        0.0162
     17 C         140.3694  139.4745  164.4113 C.ar    1  UNL1        0.0699
     18 N         141.5044  140.0153  163.5931 N.pl3   1  UNL1       -0.1925
     19 C         141.5109  139.8299  162.1046 C.3     1  UNL1        0.1388
     20 S         142.6327  140.7416  164.2634 S.O2    1  UNL1        0.0588
     21 C         143.7611  141.4678  164.9337 C.3     1  UNL1        0.1999
     22 O         142.5571  141.8194  163.2230 O.2     1  UNL1       -0.1542
     23 O         142.7084  139.6637  165.3038 O.2     1  UNL1       -0.1542
     24 C         138.6104  140.2016  159.5265 C.ar    1  UNL1        0.1533
     25 C         139.2430  138.9822  158.9241 C.ar    1  UNL1        0.0527
     26 C         140.3534  139.1286  157.9263 C.ar    1  UNL1        0.0510
     27 C         140.8312  140.4943  157.5309 C.ar    1  UNL1        0.0160
     28 C         140.1987  141.7138  158.1333 C.ar    1  UNL1        0.0190
     29 C         139.0883  141.5674  159.1311 C.ar    1  UNL1        0.0850
     30 N         140.9860  137.9092  157.3240 N.pl3   1  UNL1       -0.3046
     31 C         142.3140  137.4268  157.8275 C.3     1  UNL1        0.1081
     32 C         142.9466  136.2073  157.2251 C.3     1  UNL1        0.0939
     33 N         142.2512  135.4704  156.1192 N.3     1  UNL1       -0.2677
     34 C         140.9231  135.9528  155.6156 C.3     1  UNL1        0.0939
     35 C         140.2905  137.1722  156.2180 C.3     1  UNL1        0.1081
     36 C         142.8837  134.2510  155.5168 C.3     1  UNL1        0.1017
     37 C         142.4698  132.8853  155.9789 C.3     1  UNL1        0.1265
     38 C         141.7508  131.9619  155.0405 C.3     1  UNL1        0.0332
     39 O         142.7747  132.4431  157.3794 O.3     1  UNL1       -0.3830
     40 H         142.4417  131.5420  157.5137 H       1  UNL1        0.2104
     41 C         137.5911  139.0143  161.6005 C.3     1  UNL1        0.2525
     42 O         137.5000  140.0553  160.5243 O.3     1  UNL1       -0.4701
@<TRIPOS>BOND
     1    41    42    1
     2    42    24    1
     3    24    25   ar
     4    25    26   ar
     5    26    30    1
     6    30    31    1
     7    31    32    1
     8    32    33    1
     9    33    36    1
    10    36    37    1
    11    37    38    1
    12    37    39    1
    13    33    34    1
    14    34    35    1
    15    26    27   ar
    16    27    28   ar
    17    28    29   ar
    18    29     1    1
    19     1     3    1
    20     3     4   ar
    21     4     5   ar
    22     5     6   ar
    23     6     7   ar
    24     7     8   ar
    25     8     9   ar
    26     9    12    1
    27    12    13   ar
    28    13    14   ar
    29    14    15   ar
    30    15    16   ar
    31    16    17   ar
    32    17    18    1
    33    18    19    1
    34    18    20    1
    35    20    21    1
    36    20    22    2
    37    20    23    2
    38     9    10   ar
    39    10    11   ar
    40    29    24   ar
    41    11     3   ar
    42    35    30    1
    43    10     6   ar
    44    17    12   ar
    45    39    40    1
    46     1     2    1
@<TRIPOS>MOLECULE
*****
 42 46 0 0 0
SMALL
GASTEIGER

@<TRIPOS>ATOM
      1 N         140.0603  138.0630  161.9930 N.pl3   1  UNL1       -0.2790
      2 H         139.5331  137.2778  161.7196 H       1  UNL1        0.1552
      3 C         139.9211  138.6135  163.3815 C.ar    1  UNL1        0.2383
      4 N         139.2012  137.8224  164.4332 N.ar    1  UNL1       -0.2093
      5 C         139.0620  138.3728  165.8215 C.ar    1  UNL1        0.1209
      6 C         139.6426  139.7143  166.1582 C.ar    1  UNL1        0.1021
      7 C         139.6624  140.5087  167.4305 C.ar    1  UNL1        0.0223
      8 C         140.3945  141.7907  167.1651 C.ar    1  UNL1        0.0208
      9 C         140.8271  141.7886  165.7288 C.ar    1  UNL1        0.0842
     10 N         140.3624  140.5054  165.1066 N.ar    1  UNL1       -0.2255
     11 N         140.5016  139.9549  163.7182 N.ar    1  UNL1       -0.1295
     12 C         141.5905  142.8785  165.0364 C.ar    1  UNL1        0.0326
     13 C         143.0868  142.8114  164.9555 C.ar    1  UNL1        0.0028
     14 C         143.8501  143.9012  164.2630 C.ar    1  UNL1        0.0001
     15 C         143.1171  145.0583  163.6514 C.ar    1  UNL1        0.0013
     16 C         141.6209  145.1254  163.7323 C.ar    1  UNL1        0.0162
     17 C         140.8575  144.0355  164.4248 C.ar    1  UNL1        0.0699
     18 N         139.3612  144.1027  164.5057 N.pl3   1  UNL1       -0.1925
     19 C         138.7041  144.9744  165.5344 C.3     1  UNL1        0.1388
     20 S         138.5220  143.2982  163.5578 S.O2    1  UNL1        0.0588
     21 C         137.6829  142.4937  162.6099 C.3     1  UNL1        0.1999
     22 O         137.7765  142.7086  164.7182 O.2     1  UNL1       -0.1542
     23 O         139.2676  143.8877  162.3974 O.2     1  UNL1       -0.1542
     24 C         140.5663  139.9131  160.2406 C.ar    1  UNL1        0.1533
     25 C         141.5088  140.5591  159.2688 C.ar    1  UNL1        0.0527
     26 C         142.8879  140.0009  159.0776 C.ar    1  UNL1        0.0510
     27 C         143.3245  138.7967  159.8583 C.ar    1  UNL1        0.0160
     28 C         142.3819  138.1507  160.8301 C.ar    1  UNL1        0.0190
     29 C         141.0029  138.7090  161.0213 C.ar    1  UNL1        0.0850
     30 N         143.8304  140.6468  158.1058 N.pl3   1  UNL1       -0.3046
     31 C         144.0640  140.0245  156.7611 C.3     1  UNL1        0.1081
     32 C         145.0066  140.6705  155.7893 C.3     1  UNL1        0.0939
     33 N         145.7155  141.9387  156.1622 N.3     1  UNL1       -0.2677
     34 C         145.4819  142.5610  157.5069 C.3     1  UNL1        0.0939
     35 C         144.5394  141.9150  158.4787 C.3     1  UNL1        0.1081
     36 C         146.6580  142.5846  155.1905 C.3     1  UNL1        0.1017
     37 C         148.1162  142.2336  155.2138 C.3     1  UNL1        0.1265
     38 C         148.9067  142.2278  153.9389 C.3     1  UNL1        0.0332
     39 O         148.7839  141.8885  156.5119 O.3     1  UNL1       -0.3830
     40 H         149.7193  141.6885  156.3512 H       1  UNL1        0.2104
     41 C         138.0500  139.9635  159.5958 C.3     1  UNL1        0.2525
     42 O         139.1872  140.4714  160.4317 O.3     1  UNL1       -0.4701
@<TRIPOS>BOND
     1    41    42    1
     2    42    24    1
     3    24    25   ar
     4    25    26   ar
     5    26    30    1
     6    30    31    1
     7    31    32    1
     8    32    33    1
     9    33    36    1
    10    36    37    1
    11    37    38    1
    12    37    39    1
    13    33    34    1
    14    34    35    1
    15    26    27   ar
    16    27    28   ar
    17    28    29   ar
    18    29     1    1
    19     1     3    1
    20     3     4   ar
    21     4     5   ar
    22     5     6   ar
    23     6     7   ar
    24     7     8   ar
    25     8     9   ar
    26     9    12    1
    27    12    13   ar
    28    13    14   ar
    29    14    15   ar
    30    15    16   ar
    31    16    17   ar
    32    17    18    1
    33    18    19    1
    34    18    20    1
    35    20    21    1
    36    20    22    2
    37    20    23    2
    38     9    10   ar
    39    10    11   ar
    40    29    24   ar
    41    11     3   ar
    42    35    30    1
    43    10     6   ar
    44    17    12   ar
    45    39    40    1
    46     1     2    1
@<TRIPOS>MOLECULE
*****
 42 46 0 0 0
SMALL
GASTEIGER

@<TRIPOS>ATOM
      1 N         145.2032  142.9019  160.9348 N.pl3   1  UNL1       -0.2790
      2 H         145.9778  143.5047  160.8583 H       1  UNL1        0.1552
      3 C         144.5308  142.3841  159.6979 C.ar    1  UNL1        0.2383
      4 N         145.1921  142.5454  158.3613 N.ar    1  UNL1       -0.2093
      5 C         144.5197  142.0275  157.1245 C.ar    1  UNL1        0.1209
      6 C         143.1860  141.3484  157.2244 C.ar    1  UNL1        0.1021
      7 C         142.2887  140.7410  156.1869 C.ar    1  UNL1        0.0223
      8 C         141.0730  140.2043  156.8825 C.ar    1  UNL1        0.0208
      9 C         141.2188  140.4800  158.3497 C.ar    1  UNL1        0.0842
     10 N         142.5247  141.1871  158.5610 N.ar    1  UNL1       -0.2255
     11 N         143.1971  141.7049  159.7978 N.ar    1  UNL1       -0.1295
     12 C         140.2319  140.1131  159.4181 C.ar    1  UNL1        0.0326
     13 C         140.4423  138.8767  160.2409 C.ar    1  UNL1        0.0028
     14 C         139.4555  138.5097  161.3093 C.ar    1  UNL1        0.0001
     15 C         138.2582  139.3792  161.5550 C.ar    1  UNL1        0.0013
     16 C         138.0478  140.6157  160.7322 C.ar    1  UNL1        0.0162
     17 C         139.0346  140.9826  159.6638 C.ar    1  UNL1        0.0699
     18 N         138.8241  142.2191  158.8411 N.pl3   1  UNL1       -0.1925
     19 C         137.8618  142.1996  157.6907 C.3     1  UNL1        0.1388
     20 S         139.5760  143.4750  159.1689 S.O2    1  UNL1        0.0588
     21 C         140.3278  144.7308  159.4967 C.3     1  UNL1        0.1999
     22 O         140.1321  143.5055  157.7761 O.2     1  UNL1       -0.1542
     23 O         139.0198  143.4444  160.5616 O.2     1  UNL1       -0.1542
     24 C         143.6634  143.3412  162.9808 C.ar    1  UNL1        0.1533
     25 C         143.1557  142.9406  164.3342 C.ar    1  UNL1        0.0527
     26 C         143.6798  141.7002  164.9949 C.ar    1  UNL1        0.0510
     27 C         144.7117  140.8603  164.3023 C.ar    1  UNL1        0.0160
     28 C         145.2196  141.2609  162.9489 C.ar    1  UNL1        0.0190
     29 C         144.6954  142.5013  162.2881 C.ar    1  UNL1        0.0850
     30 N         143.1720  141.2996  166.3483 N.pl3   1  UNL1       -0.3046
     31 C         142.8393  139.8643  166.6299 C.3     1  UNL1        0.1081
     32 C         142.3315  139.4637  167.9833 C.3     1  UNL1        0.0939
     33 N         142.1564  140.4984  169.0551 N.3     1  UNL1       -0.2677
     34 C         142.4891  141.9337  168.7735 C.3     1  UNL1        0.0939
     35 C         142.9969  142.3343  167.4201 C.3     1  UNL1        0.1081
     36 C         141.6486  140.0978  170.4085 C.3     1  UNL1        0.1017
     37 C         140.1733  139.9738  170.6494 C.3     1  UNL1        0.1265
     38 C         139.2120  140.8197  169.8681 C.3     1  UNL1        0.0332
     39 O         139.6593  139.0039  171.6717 O.3     1  UNL1       -0.3830
     40 H         138.6908  139.0489  171.7019 H       1  UNL1        0.2104
     41 C         141.9042  145.2484  162.8490 C.3     1  UNL1        0.2525
     42 O         143.1393  144.5816  162.3201 O.3     1  UNL1       -0.4701
@<TRIPOS>BOND
     1    41    42    1
     2    42    24    1
     3    24    25   ar
     4    25    26   ar
     5    26    30    1
     6    30    31    1
     7    31    32    1
     8    32    33    1
     9    33    36    1
    10    36    37    1
    11    37    38    1
    12    37    39    1
    13    33    34    1
    14    34    35    1
    15    26    27   ar
    16    27    28   ar
    17    28    29   ar
    18    29     1    1
    19     1     3    1
    20     3     4   ar
    21     4     5   ar
    22     5     6   ar
    23     6     7   ar
    24     7     8   ar
    25     8     9   ar
    26     9    12    1
    27    12    13   ar
    28    13    14   ar
    29    14    15   ar
    30    15    16   ar
    31    16    17   ar
    32    17    18    1
    33    18    19    1
    34    18    20    1
    35    20    21    1
    36    20    22    2
    37    20    23    2
    38     9    10   ar
    39    10    11   ar
    40    29    24   ar
    41    11     3   ar
    42    35    30    1
    43    10     6   ar
    44    17    12   ar
    45    39    40    1
    46     1     2    1
