@<TRIPOS>MOLECULE
*****
 26 30 0 0 0
SMALL
GASTEIGER

@<TRIPOS>ATOM
      1 C         141.4661  140.9138  166.9415 C.ar    1  UNL1        0.0772
      2 C         140.5348  141.7530  166.1177 C.ar    1  UNL1        0.0355
      3 C         139.9746  141.2130  164.8352 C.ar    1  UNL1        0.0800
      4 C         140.3457  139.8338  164.3766 C.ar    1  UNL1        0.0837
      5 C         141.2769  138.9947  165.2004 C.ar    1  UNL1        0.0499
      6 C         141.8371  139.5347  166.4828 C.ar    1  UNL1        0.1549
      7 F         142.7684  138.6955  167.3066 F       1  UNL1       -0.2028
      8 N         139.7855  139.2939  163.0942 N.ar    1  UNL1       -0.2835
      9 C         139.9694  137.9809  162.3927 C.ar    1  UNL1        0.1023
     10 C         139.1518  138.0086  161.1355 C.ar    1  UNL1        0.1197
     11 N         138.4626  139.3387  161.0599 N.ar    1  UNL1       -0.2206
     12 C         138.8542  140.1331  162.2704 C.ar    1  UNL1        0.2051
     13 C         138.4832  141.5122  162.7291 C.ar    1  UNL1        0.2955
     14 O         137.5519  142.3514  161.9054 O.2     1  UNL1       -0.2636
     15 N         139.0434  142.0521  164.0115 N.ar    1  UNL1       -0.2935
     16 N         142.0476  142.1438  172.0434 N.3     1  UNL1       -0.3208
     17 C         142.2936  142.0191  170.5690 C.3     1  UNL1        0.0725
     18 C         143.4833  142.5501  169.8257 C.3     1  UNL1        0.0386
     19 C         143.3181  142.2007  168.3763 C.3     1  UNL1        0.0923
     20 N         142.0263  141.4537  168.2239 N.pl3   1  UNL1       -0.3043
     21 C         141.3931  141.3415  169.5791 C.3     1  UNL1        0.1063
     22 H         142.8200  142.6509  172.4753 H       1  UNL1        0.1189
     23 H         141.9783  141.2137  172.4564 H       1  UNL1        0.1189
     24 C         138.6723  143.4313  164.4702 C.3     1  UNL1        0.0886
     25 C         139.0679  144.8379  164.8093 C.3     1  UNL1        0.0246
     26 C         137.6339  144.4134  164.9254 C.3     1  UNL1        0.0246
@<TRIPOS>BOND
     1    17    16    1
     2    17    18    1
     3    18    19    1
     4    19    20    1
     5    20     1    1
     6     1     2   ar
     7     2     3   ar
     8     3     4   ar
     9     4     5   ar
    10     5     6   ar
    11     6     7    1
    12     4     8   ar
    13     8     9   ar
    14     9    10   ar
    15    10    11   ar
    16    11    12   ar
    17    12    13   ar
    18    13    14    2
    19    13    15   ar
    20    15    24    1
    21    24    25    1
    22    25    26    1
    23    20    21    1
    24    21    17    1
    25     6     1   ar
    26    12     8   ar
    27    26    24    1
    28    15     3   ar
    29    16    22    1
    30    16    23    1
@<TRIPOS>MOLECULE
*****
 26 30 0 0 0
SMALL
GASTEIGER

@<TRIPOS>ATOM
      1 C         142.7511  141.1232  167.0563 C.ar    1  UNL1        0.0772
      2 C         142.8221  142.0838  165.9064 C.ar    1  UNL1        0.0355
      3 C         143.0398  141.5715  164.5134 C.ar    1  UNL1        0.0800
      4 C         143.1865  140.0985  164.2705 C.ar    1  UNL1        0.0837
      5 C         143.1156  139.1380  165.4205 C.ar    1  UNL1        0.0499
      6 C         142.8979  139.6504  166.8133 C.ar    1  UNL1        0.1549
      7 F         142.8269  138.6898  167.9632 F       1  UNL1       -0.2028
      8 N         143.4042  139.5862  162.8776 N.ar    1  UNL1       -0.2835
      9 C         143.5825  138.1993  162.3348 C.ar    1  UNL1        0.1023
     10 C         143.7635  138.3028  160.8493 C.ar    1  UNL1        0.1197
     11 N         143.6972  139.7536  160.4742 N.ar    1  UNL1       -0.2206
     12 C         143.4752  140.5468  161.7277 C.ar    1  UNL1        0.2051
     13 C         143.3284  142.0197  161.9707 C.ar    1  UNL1        0.2955
     14 O         143.3994  142.9803  160.8208 O.2     1  UNL1       -0.2636
     15 N         143.1107  142.5320  163.3636 N.ar    1  UNL1       -0.2935
     16 N         140.5542  142.1273  171.7516 N.3     1  UNL1       -0.3208
     17 C         141.5236  142.0971  170.6074 C.3     1  UNL1        0.0725
     18 C         142.8733  142.7508  170.5779 C.3     1  UNL1        0.0386
     19 C         143.4974  142.4655  169.2440 C.3     1  UNL1        0.0923
     20 N         142.5334  141.6355  168.4492 N.pl3   1  UNL1       -0.3043
     21 C         141.3135  141.4078  169.2918 C.3     1  UNL1        0.1063
     22 H         140.9525  142.6663  172.5205 H       1  UNL1        0.1189
     23 H         140.3680  141.1746  172.0648 H       1  UNL1        0.1189
     24 C         142.9639  144.0050  163.6065 C.3     1  UNL1        0.0886
     25 C         142.0949  145.2218  163.7253 C.3     1  UNL1        0.0246
     26 C         143.5790  145.3393  163.9086 C.3     1  UNL1        0.0246
@<TRIPOS>BOND
     1    17    16    1
     2    17    18    1
     3    18    19    1
     4    19    20    1
     5    20     1    1
     6     1     2   ar
     7     2     3   ar
     8     3     4   ar
     9     4     5   ar
    10     5     6   ar
    11     6     7    1
    12     4     8   ar
    13     8     9   ar
    14     9    10   ar
    15    10    11   ar
    16    11    12   ar
    17    12    13   ar
    18    13    14    2
    19    13    15   ar
    20    15    24    1
    21    24    25    1
    22    25    26    1
    23    20    21    1
    24    21    17    1
    25     6     1   ar
    26    12     8   ar
    27    26    24    1
    28    15     3   ar
    29    16    22    1
    30    16    23    1
@<TRIPOS>MOLECULE
*****
 26 30 0 0 0
SMALL
GASTEIGER

@<TRIPOS>ATOM
      1 C         141.6536  141.9962  166.8544 C.ar    1  UNL1        0.0772
      2 C         142.5526  141.9405  165.6549 C.ar    1  UNL1        0.0355
      3 C         142.2360  142.7636  164.4415 C.ar    1  UNL1        0.0800
      4 C         141.0204  143.6424  164.4276 C.ar    1  UNL1        0.0837
      5 C         140.1214  143.6980  165.6271 C.ar    1  UNL1        0.0499
      6 C         140.4380  142.8749  166.8405 C.ar    1  UNL1        0.1549
      7 F         139.5390  142.9306  168.0399 F       1  UNL1       -0.2028
      8 N         140.7039  144.4655  163.2142 N.ar    1  UNL1       -0.2835
      9 C         139.5848  145.4172  162.9110 C.ar    1  UNL1        0.1023
     10 C         139.7922  145.9496  161.5241 C.ar    1  UNL1        0.1197
     11 N         141.0394  145.3271  160.9702 N.ar    1  UNL1       -0.2206
     12 C         141.6029  144.4098  162.0148 C.ar    1  UNL1        0.2051
     13 C         142.8184  143.5310  162.0287 C.ar    1  UNL1        0.2955
     14 O         143.7174  143.4753  160.8292 O.2     1  UNL1       -0.2636
     15 N         143.1349  142.7079  163.2421 N.ar    1  UNL1       -0.2935
     16 N         142.4869  140.5497  171.8638 N.3     1  UNL1       -0.3208
     17 C         142.3531  140.5082  170.3703 C.3     1  UNL1        0.0725
     18 C         142.5613  139.3047  169.4997 C.3     1  UNL1        0.0386
     19 C         142.3245  139.7156  168.0765 C.3     1  UNL1        0.0923
     20 N         141.9701  141.1731  168.0678 N.pl3   1  UNL1       -0.3043
     21 C         141.9878  141.6630  169.4854 C.3     1  UNL1        0.1063
     22 H         142.7444  139.6247  172.2079 H       1  UNL1        0.1189
     23 H         141.5977  140.8308  172.2771 H       1  UNL1        0.1189
     24 C         144.3506  141.8292  163.2560 C.3     1  UNL1        0.0886
     25 C         145.7679  141.5789  163.6786 C.3     1  UNL1        0.0246
     26 C         145.0386  140.5573  162.8573 C.3     1  UNL1        0.0246
@<TRIPOS>BOND
     1    17    16    1
     2    17    18    1
     3    18    19    1
     4    19    20    1
     5    20     1    1
     6     1     2   ar
     7     2     3   ar
     8     3     4   ar
     9     4     5   ar
    10     5     6   ar
    11     6     7    1
    12     4     8   ar
    13     8     9   ar
    14     9    10   ar
    15    10    11   ar
    16    11    12   ar
    17    12    13   ar
    18    13    14    2
    19    13    15   ar
    20    15    24    1
    21    24    25    1
    22    25    26    1
    23    20    21    1
    24    21    17    1
    25     6     1   ar
    26    12     8   ar
    27    26    24    1
    28    15     3   ar
    29    16    22    1
    30    16    23    1
@<TRIPOS>MOLECULE
*****
 26 30 0 0 0
SMALL
GASTEIGER

@<TRIPOS>ATOM
      1 C         140.6867  139.9467  167.2323 C.ar    1  UNL1        0.0772
      2 C         141.7108  140.0701  166.1432 C.ar    1  UNL1        0.0355
      3 C         141.3503  139.7151  164.7310 C.ar    1  UNL1        0.0800
      4 C         139.9657  139.2366  164.4081 C.ar    1  UNL1        0.0837
      5 C         138.9418  139.1132  165.4973 C.ar    1  UNL1        0.0499
      6 C         139.3023  139.4683  166.9093 C.ar    1  UNL1        0.1549
      7 F         138.2783  139.3449  167.9984 F       1  UNL1       -0.2028
      8 N         139.6053  138.8815  162.9960 N.ar    1  UNL1       -0.2835
      9 C         138.3307  138.3857  162.3799 C.ar    1  UNL1        0.1023
     10 C         138.5670  138.2027  160.9100 C.ar    1  UNL1        0.1197
     11 N         139.9876  138.5854  160.6176 N.ar    1  UNL1       -0.2206
     12 C         140.6293  139.0049  161.9069 C.ar    1  UNL1        0.2051
     13 C         142.0138  139.4834  162.2299 C.ar    1  UNL1        0.2955
     14 O         143.0378  139.6068  161.1408 O.2     1  UNL1       -0.2636
     15 N         142.3742  139.8384  163.6420 N.ar    1  UNL1       -0.2935
     16 N         140.6038  142.1316  172.0385 N.3     1  UNL1       -0.3208
     17 C         141.0091  141.3061  170.8536 C.3     1  UNL1        0.0725
     18 C         142.1948  140.3901  170.7812 C.3     1  UNL1        0.0386
     19 C         142.2183  139.7694  169.4158 C.3     1  UNL1        0.0923
     20 N         141.0472  140.3018  168.6444 N.pl3   1  UNL1       -0.3043
     21 C         140.2998  141.2514  169.5329 C.3     1  UNL1        0.1063
     22 H         141.2627  141.9775  172.8017 H       1  UNL1        0.1189
     23 H         139.6673  141.8600  172.3379 H       1  UNL1        0.1189
     24 C         143.7588  140.3169  163.9649 C.3     1  UNL1        0.0886
     25 C         145.1877  140.0206  164.3116 C.3     1  UNL1        0.0246
     26 C         144.7278  141.4420  164.1774 C.3     1  UNL1        0.0246
@<TRIPOS>BOND
     1    17    16    1
     2    17    18    1
     3    18    19    1
     4    19    20    1
     5    20     1    1
     6     1     2   ar
     7     2     3   ar
     8     3     4   ar
     9     4     5   ar
    10     5     6   ar
    11     6     7    1
    12     4     8   ar
    13     8     9   ar
    14     9    10   ar
    15    10    11   ar
    16    11    12   ar
    17    12    13   ar
    18    13    14    2
    19    13    15   ar
    20    15    24    1
    21    24    25    1
    22    25    26    1
    23    20    21    1
    24    21    17    1
    25     6     1   ar
    26    12     8   ar
    27    26    24    1
    28    15     3   ar
    29    16    22    1
    30    16    23    1
@<TRIPOS>MOLECULE
*****
 26 30 0 0 0
SMALL
GASTEIGER

@<TRIPOS>ATOM
      1 C         139.3088  139.6771  165.3014 C.ar    1  UNL1        0.0772
      2 C         140.5628  140.4927  165.4121 C.ar    1  UNL1        0.0355
      3 C         141.0806  140.8927  166.7620 C.ar    1  UNL1        0.0800
      4 C         140.3443  140.4771  168.0011 C.ar    1  UNL1        0.0837
      5 C         139.0902  139.6616  167.8903 C.ar    1  UNL1        0.0499
      6 C         138.5725  139.2616  166.5405 C.ar    1  UNL1        0.1549
      7 F         137.3185  138.4460  166.4298 F       1  UNL1       -0.2028
      8 N         140.8621  140.8772  169.3508 N.ar    1  UNL1       -0.2835
      9 C         140.3546  140.6166  170.7381 C.ar    1  UNL1        0.1023
     10 C         141.2950  141.2711  171.7062 C.ar    1  UNL1        0.1197
     11 N         142.3837  141.9362  170.9172 N.ar    1  UNL1       -0.2206
     12 C         142.1161  141.6927  169.4615 C.ar    1  UNL1        0.2051
     13 C         142.8524  142.1083  168.2225 C.ar    1  UNL1        0.2955
     14 O         144.1064  142.9238  168.3332 O.2     1  UNL1       -0.2636
     15 N         142.3346  141.7082  166.8727 N.ar    1  UNL1       -0.2935
     16 N         136.8927  139.8096  160.6083 N.3     1  UNL1       -0.3208
     17 C         137.6804  139.3380  161.7945 C.3     1  UNL1        0.0725
     18 C         138.3079  137.9850  161.9547 C.3     1  UNL1        0.0386
     19 C         138.9943  137.9474  163.2880 C.3     1  UNL1        0.0923
     20 N         138.7910  139.2771  163.9517 N.pl3   1  UNL1       -0.3043
     21 C         137.9790  140.1365  163.0286 C.3     1  UNL1        0.1063
     22 H         136.8445  139.0639  159.9139 H       1  UNL1        0.1189
     23 H         137.3487  140.6255  160.1999 H       1  UNL1        0.1189
     24 C         143.0709  142.1238  165.6337 C.3     1  UNL1        0.0886
     25 C         143.3454  143.1398  164.5648 C.3     1  UNL1        0.0246
     26 C         144.0718  141.8275  164.5564 C.3     1  UNL1        0.0246
@<TRIPOS>BOND
     1    17    16    1
     2    17    18    1
     3    18    19    1
     4    19    20    1
     5    20     1    1
     6     1     2   ar
     7     2     3   ar
     8     3     4   ar
     9     4     5   ar
    10     5     6   ar
    11     6     7    1
    12     4     8   ar
    13     8     9   ar
    14     9    10   ar
    15    10    11   ar
    16    11    12   ar
    17    12    13   ar
    18    13    14    2
    19    13    15   ar
    20    15    24    1
    21    24    25    1
    22    25    26    1
    23    20    21    1
    24    21    17    1
    25     6     1   ar
    26    12     8   ar
    27    26    24    1
    28    15     3   ar
    29    16    22    1
    30    16    23    1
@<TRIPOS>MOLECULE
*****
 26 30 0 0 0
SMALL
GASTEIGER

@<TRIPOS>ATOM
      1 C         140.6210  142.7821  165.9849 C.ar    1  UNL1        0.0772
      2 C         141.7320  142.1904  165.1690 C.ar    1  UNL1        0.0355
      3 C         141.9699  142.6687  163.7672 C.ar    1  UNL1        0.0800
      4 C         141.0968  143.7387  163.1815 C.ar    1  UNL1        0.0837
      5 C         139.9858  144.3303  163.9975 C.ar    1  UNL1        0.0499
      6 C         139.7480  143.8520  165.3991 C.ar    1  UNL1        0.1549
      7 F         138.6370  144.4437  166.2150 F       1  UNL1       -0.2028
      8 N         141.3347  144.2169  161.7798 N.ar    1  UNL1       -0.2835
      9 C         140.6427  145.2498  160.9407 C.ar    1  UNL1        0.1023
     10 C         141.3259  145.2965  159.6062 C.ar    1  UNL1        0.1197
     11 N         142.4402  144.2925  159.6205 N.ar    1  UNL1       -0.2206
     12 C         142.4457  143.6252  160.9639 C.ar    1  UNL1        0.2051
     13 C         143.3187  142.5553  161.5497 C.ar    1  UNL1        0.2955
     14 O         144.4297  141.9636  160.7338 O.2     1  UNL1       -0.2636
     15 N         143.0808  142.0771  162.9513 N.ar    1  UNL1       -0.2935
     16 N         140.1462  142.6774  171.2427 N.3     1  UNL1       -0.3208
     17 C         140.1648  142.2557  169.8033 C.3     1  UNL1        0.0725
     18 C         139.8690  140.8800  169.2837 C.3     1  UNL1        0.0386
     19 C         140.0039  140.9098  167.7900 C.3     1  UNL1        0.0923
     20 N         140.3831  142.3039  167.3865 N.pl3   1  UNL1       -0.3043
     21 C         140.4826  143.1357  168.6308 C.3     1  UNL1        0.1063
     22 H         139.8989  141.8792  171.8276 H       1  UNL1        0.1189
     23 H         139.4579  143.4191  171.3708 H       1  UNL1        0.1189
     24 C         143.9539  141.0071  163.5371 C.3     1  UNL1        0.0886
     25 C         145.2727  140.5726  164.1043 C.3     1  UNL1        0.0246
     26 C         144.1471  139.5884  163.9842 C.3     1  UNL1        0.0246
@<TRIPOS>BOND
     1    17    16    1
     2    17    18    1
     3    18    19    1
     4    19    20    1
     5    20     1    1
     6     1     2   ar
     7     2     3   ar
     8     3     4   ar
     9     4     5   ar
    10     5     6   ar
    11     6     7    1
    12     4     8   ar
    13     8     9   ar
    14     9    10   ar
    15    10    11   ar
    16    11    12   ar
    17    12    13   ar
    18    13    14    2
    19    13    15   ar
    20    15    24    1
    21    24    25    1
    22    25    26    1
    23    20    21    1
    24    21    17    1
    25     6     1   ar
    26    12     8   ar
    27    26    24    1
    28    15     3   ar
    29    16    22    1
    30    16    23    1
@<TRIPOS>MOLECULE
*****
 26 30 0 0 0
SMALL
GASTEIGER

@<TRIPOS>ATOM
      1 C         140.8758  143.1424  164.5598 C.ar    1  UNL1        0.0772
      2 C         141.8299  141.9873  164.4865 C.ar    1  UNL1        0.0355
      3 C         142.0686  141.1338  165.6968 C.ar    1  UNL1        0.0800
      4 C         141.3533  141.4356  166.9803 C.ar    1  UNL1        0.0837
      5 C         140.3992  142.5908  167.0535 C.ar    1  UNL1        0.0499
      6 C         140.1605  143.4442  165.8432 C.ar    1  UNL1        0.1549
      7 F         139.2064  144.5993  165.9165 F       1  UNL1       -0.2028
      8 N         141.5920  140.5822  168.1905 N.ar    1  UNL1       -0.2835
      9 C         141.0355  140.6363  169.5824 C.ar    1  UNL1        0.1023
     10 C         141.6457  139.5145  170.3694 C.ar    1  UNL1        0.1197
     11 N         142.5793  138.7672  169.4639 N.ar    1  UNL1       -0.2206
     12 C         142.5461  139.4271  168.1173 C.ar    1  UNL1        0.2051
     13 C         143.2615  139.1253  166.8338 C.ar    1  UNL1        0.2955
     14 O         144.2155  137.9702  166.7606 O.2     1  UNL1       -0.2636
     15 N         143.0227  139.9788  165.6236 N.ar    1  UNL1       -0.2935
     16 N         141.5319  145.5638  159.9136 N.3     1  UNL1       -0.3208
     17 C         140.9386  145.1088  161.2139 C.3     1  UNL1        0.0725
     18 C         139.6004  145.5096  161.7605 C.3     1  UNL1        0.0386
     19 C         139.4140  144.8217  163.0805 C.3     1  UNL1        0.0923
     20 N         140.6370  143.9959  163.3496 N.pl3   1  UNL1       -0.3043
     21 C         141.5792  144.1733  162.1960 C.3     1  UNL1        0.1063
     22 H         140.8823  146.1963  159.4463 H       1  UNL1        0.1189
     23 H         141.7062  144.7544  159.3178 H       1  UNL1        0.1189
     24 C         143.7381  139.6770  164.3401 C.3     1  UNL1        0.0886
     25 C         143.8589  138.8763  163.0775 C.3     1  UNL1        0.0246
     26 C         144.8564  139.9550  163.3799 C.3     1  UNL1        0.0246
@<TRIPOS>BOND
     1    17    16    1
     2    17    18    1
     3    18    19    1
     4    19    20    1
     5    20     1    1
     6     1     2   ar
     7     2     3   ar
     8     3     4   ar
     9     4     5   ar
    10     5     6   ar
    11     6     7    1
    12     4     8   ar
    13     8     9   ar
    14     9    10   ar
    15    10    11   ar
    16    11    12   ar
    17    12    13   ar
    18    13    14    2
    19    13    15   ar
    20    15    24    1
    21    24    25    1
    22    25    26    1
    23    20    21    1
    24    21    17    1
    25     6     1   ar
    26    12     8   ar
    27    26    24    1
    28    15     3   ar
    29    16    22    1
    30    16    23    1
@<TRIPOS>MOLECULE
*****
 26 30 0 0 0
SMALL
GASTEIGER

@<TRIPOS>ATOM
      1 C         139.6040  141.2627  164.4006 C.ar    1  UNL1        0.0772
      2 C         141.0057  141.1219  163.8854 C.ar    1  UNL1        0.0355
      3 C         141.4613  141.9444  162.7165 C.ar    1  UNL1        0.0800
      4 C         140.5151  142.9077  162.0630 C.ar    1  UNL1        0.0837
      5 C         139.1134  143.0484  162.5783 C.ar    1  UNL1        0.0499
      6 C         138.6579  142.2259  163.7471 C.ar    1  UNL1        0.1549
      7 F         137.2562  142.3667  164.2623 F       1  UNL1       -0.2028
      8 N         140.9707  143.7301  160.8943 N.ar    1  UNL1       -0.2835
      9 C         140.2682  144.7541  160.0529 C.ar    1  UNL1        0.1023
     10 C         141.2358  145.2462  159.0177 C.ar    1  UNL1        0.1197
     11 N         142.5362  144.5263  159.2192 N.ar    1  UNL1       -0.2206
     12 C         142.3724  143.5893  160.3791 C.ar    1  UNL1        0.2051
     13 C         143.3185  142.6261  161.0326 C.ar    1  UNL1        0.2955
     14 O         144.7202  142.4853  160.5174 O.2     1  UNL1       -0.2636
     15 N         142.8629  141.8037  162.2013 N.ar    1  UNL1       -0.2935
     16 N         137.0434  137.7038  167.3431 N.3     1  UNL1       -0.3208
     17 C         137.9714  138.8044  166.9219 C.3     1  UNL1        0.0725
     18 C         138.9232  139.5449  167.8140 C.3     1  UNL1        0.0386
     19 C         139.6506  140.5559  166.9780 C.3     1  UNL1        0.0923
     20 N         139.1484  140.4402  165.5693 N.pl3   1  UNL1       -0.3043
     21 C         138.1106  139.3577  165.5346 C.3     1  UNL1        0.1063
     22 H         137.1551  137.5285  168.3417 H       1  UNL1        0.1189
     23 H         137.2640  136.8550  166.8222 H       1  UNL1        0.1189
     24 C         143.8091  140.8404  162.8548 C.3     1  UNL1        0.0886
     25 C         145.0021  140.5803  163.7261 C.3     1  UNL1        0.0246
     26 C         144.2548  139.4320  163.1154 C.3     1  UNL1        0.0246
@<TRIPOS>BOND
     1    17    16    1
     2    17    18    1
     3    18    19    1
     4    19    20    1
     5    20     1    1
     6     1     2   ar
     7     2     3   ar
     8     3     4   ar
     9     4     5   ar
    10     5     6   ar
    11     6     7    1
    12     4     8   ar
    13     8     9   ar
    14     9    10   ar
    15    10    11   ar
    16    11    12   ar
    17    12    13   ar
    18    13    14    2
    19    13    15   ar
    20    15    24    1
    21    24    25    1
    22    25    26    1
    23    20    21    1
    24    21    17    1
    25     6     1   ar
    26    12     8   ar
    27    26    24    1
    28    15     3   ar
    29    16    22    1
    30    16    23    1
@<TRIPOS>MOLECULE
*****
 26 30 0 0 0
SMALL
GASTEIGER

@<TRIPOS>ATOM
      1 C         140.8622  140.9930  167.3220 C.ar    1  UNL1        0.0772
      2 C         141.5407  141.8307  166.2790 C.ar    1  UNL1        0.0355
      3 C         140.9635  141.9210  164.8974 C.ar    1  UNL1        0.0800
      4 C         139.7077  141.1736  164.5589 C.ar    1  UNL1        0.0837
      5 C         139.0292  140.3359  165.6020 C.ar    1  UNL1        0.0499
      6 C         139.6064  140.2457  166.9835 C.ar    1  UNL1        0.1549
      7 F         138.9279  139.4080  168.0266 F       1  UNL1       -0.2028
      8 N         139.1305  141.2639  163.1774 N.ar    1  UNL1       -0.2835
      9 C         137.9143  140.6442  162.5553 C.ar    1  UNL1        0.1023
     10 C         137.8413  141.0989  161.1277 C.ar    1  UNL1        0.1197
     11 N         139.0122  141.9995  160.8675 N.ar    1  UNL1       -0.2206
     12 C         139.8090  142.1015  162.1343 C.ar    1  UNL1        0.2051
     13 C         141.0648  142.8488  162.4728 C.ar    1  UNL1        0.2955
     14 O         141.7433  143.6865  161.4298 O.2     1  UNL1       -0.2636
     15 N         141.6420  142.7585  163.8544 N.ar    1  UNL1       -0.2935
     16 N         143.8653  139.5751  171.4270 N.3     1  UNL1       -0.3208
     17 C         142.8197  140.2510  170.5905 C.3     1  UNL1        0.0725
     18 C         141.8353  141.2766  171.0688 C.3     1  UNL1        0.0386
     19 C         140.9821  141.6794  169.9026 C.3     1  UNL1        0.0923
     20 N         141.4393  140.9027  168.7036 N.pl3   1  UNL1       -0.3043
     21 C         142.5751  140.0199  169.1287 C.3     1  UNL1        0.1063
     22 H         143.8092  139.9199  172.3854 H       1  UNL1        0.1189
     23 H         144.7894  139.7786  171.0461 H       1  UNL1        0.1189
     24 C         142.8977  143.5059  164.1928 C.3     1  UNL1        0.0886
     25 C         144.2912  143.5206  164.7478 C.3     1  UNL1        0.0246
     26 C         143.6792  144.7859  164.2240 C.3     1  UNL1        0.0246
@<TRIPOS>BOND
     1    17    16    1
     2    17    18    1
     3    18    19    1
     4    19    20    1
     5    20     1    1
     6     1     2   ar
     7     2     3   ar
     8     3     4   ar
     9     4     5   ar
    10     5     6   ar
    11     6     7    1
    12     4     8   ar
    13     8     9   ar
    14     9    10   ar
    15    10    11   ar
    16    11    12   ar
    17    12    13   ar
    18    13    14    2
    19    13    15   ar
    20    15    24    1
    21    24    25    1
    22    25    26    1
    23    20    21    1
    24    21    17    1
    25     6     1   ar
    26    12     8   ar
    27    26    24    1
    28    15     3   ar
    29    16    22    1
    30    16    23    1
