@<TRIPOS>MOLECULE
*****
 28 31 0 0 0
SMALL
GASTEIGER

@<TRIPOS>ATOM
      1 C         140.9271  139.0760  165.4762 C.ar    1  UNL1        0.1547
      2 C         140.6686  138.5583  164.0924 C.ar    1  UNL1        0.0384
      3 C         141.8087  138.3757  163.1347 C.ar    1  UNL1        0.0034
      4 C         143.2072  138.7108  163.5611 C.ar    1  UNL1        0.0017
      5 C         143.4657  139.2285  164.9450 C.ar    1  UNL1        0.0206
      6 C         142.3256  139.4111  165.9026 C.ar    1  UNL1        0.0994
      7 N         142.5841  139.9288  167.2864 N.ar    1  UNL1       -0.2839
      8 C         142.7193  139.0976  168.5278 C.ar    1  UNL1        0.1826
      9 N         142.9716  140.0237  169.6806 N.ar    1  UNL1       -0.2280
     10 C         142.9923  141.4273  169.1516 C.ar    1  UNL1        0.0786
     11 C         143.2136  142.6710  169.9602 C.3     1  UNL1        0.0538
     12 C         142.7528  141.3686  167.6720 C.ar    1  UNL1        0.0963
     13 C         138.3924  139.4426  165.9131 C.3     1  UNL1        0.2525
     14 O         139.7870  139.2585  166.4337 O.3     1  UNL1       -0.4700
     15 C         141.5502  137.8580  161.7509 C.2     1  UNL1        0.0079
     16 C         142.0771  138.6035  160.5607 C.2     1  UNL1        0.0937
     17 C         141.8186  138.0858  159.1767 C.2     1  UNL1        0.3691
     18 N         142.8791  137.3064  158.4573 N.2     1  UNL1       -0.0400
     19 C         142.6207  136.7887  157.0733 C.2     1  UNL1        0.1820
     20 C         143.6812  136.0093  156.3539 C.3     1  UNL1        0.1023
     21 C         143.4227  135.4917  154.9700 C.2     1  UNL1        0.0122
     22 C         142.1036  135.7535  154.3056 C.2     1  UNL1        0.1367
     23 F         141.8451  135.2358  152.9216 F       1  UNL1       -0.2045
     24 C         141.0431  136.5329  155.0250 C.2     1  UNL1        0.0397
     25 C         141.3016  137.0505  156.4089 C.2     1  UNL1        0.1232
     26 C         140.2410  137.8300  157.1284 C.2     1  UNL1        0.3789
     27 O         138.9219  138.0918  156.4640 O.2     1  UNL1       -0.2376
     28 N         140.4995  138.3476  158.5123 N.am    1  UNL1        0.0364
@<TRIPOS>BOND
     1    13    14    1
     2    14     1    1
     3     1     2   ar
     4     2     3   ar
     5     3    15    1
     6    15    16    2
     7    16    17    1
     8    17    18    1
     9    18    19    2
    10    19    20    1
    11    20    21    1
    12    21    22    2
    13    22    23    1
    14    22    24    1
    15    24    25    2
    16    25    26    1
    17    26    27    2
    18    26    28    1
    19     3     4   ar
    20     4     5   ar
    21     5     6   ar
    22     6     7    1
    23     7     8   ar
    24     8     9   ar
    25     9    10   ar
    26    10    11    1
    27    10    12   ar
    28     6     1   ar
    29    12     7   ar
    30    28    17    2
    31    25    19    1
@<TRIPOS>MOLECULE
*****
 28 31 0 0 0
SMALL
GASTEIGER

@<TRIPOS>ATOM
      1 C         140.0099  137.2706  156.6606 C.ar    1  UNL1        0.1547
      2 C         139.7893  138.3171  157.7123 C.ar    1  UNL1        0.0384
      3 C         140.9542  138.8613  158.4849 C.ar    1  UNL1        0.0034
      4 C         142.3398  138.3590  158.2056 C.ar    1  UNL1        0.0017
      5 C         142.5603  137.3125  157.1538 C.ar    1  UNL1        0.0206
      6 C         141.3954  136.7683  156.3813 C.ar    1  UNL1        0.0994
      7 N         141.6160  135.7219  155.3296 N.ar    1  UNL1       -0.2839
      8 C         141.6446  135.9533  153.8478 C.ar    1  UNL1        0.1826
      9 N         141.8931  134.6346  153.1774 N.ar    1  UNL1       -0.2280
     10 C         142.0181  133.5882  154.2449 C.ar    1  UNL1        0.0786
     11 C         142.2700  132.1266  154.0214 C.3     1  UNL1        0.0538
     12 C         141.8469  134.2601  155.5750 C.ar    1  UNL1        0.0963
     13 C         138.1505  137.5859  154.8737 C.3     1  UNL1        0.2525
     14 O         138.8450  136.7265  155.8881 O.3     1  UNL1       -0.4700
     15 C         140.7336  139.9078  159.5366 C.2     1  UNL1        0.0079
     16 C         140.8046  139.5384  160.9886 C.2     1  UNL1        0.0937
     17 C         140.5840  140.5849  162.0405 C.2     1  UNL1        0.3691
     18 N         139.2838  141.3309  162.0951 N.2     1  UNL1       -0.0400
     19 C         139.0632  142.3774  163.1470 C.2     1  UNL1        0.1820
     20 C         137.7630  143.1234  163.2016 C.3     1  UNL1        0.1023
     21 C         137.5425  144.1698  164.2534 C.2     1  UNL1        0.0122
     22 C         138.6220  144.4702  165.2505 C.2     1  UNL1        0.1367
     23 F         138.4014  145.5167  166.3023 F       1  UNL1       -0.2045
     24 C         139.9222  143.7242  165.1959 C.2     1  UNL1        0.0397
     25 C         140.1428  142.6778  164.1441 C.2     1  UNL1        0.1232
     26 C         141.4430  141.9317  164.0894 C.2     1  UNL1        0.3789
     27 O         142.5226  142.2322  165.0865 O.2     1  UNL1       -0.2376
     28 N         141.6635  140.8853  163.0376 N.am    1  UNL1        0.0364
@<TRIPOS>BOND
     1    13    14    1
     2    14     1    1
     3     1     2   ar
     4     2     3   ar
     5     3    15    1
     6    15    16    2
     7    16    17    1
     8    17    18    1
     9    18    19    2
    10    19    20    1
    11    20    21    1
    12    21    22    2
    13    22    23    1
    14    22    24    1
    15    24    25    2
    16    25    26    1
    17    26    27    2
    18    26    28    1
    19     3     4   ar
    20     4     5   ar
    21     5     6   ar
    22     6     7    1
    23     7     8   ar
    24     8     9   ar
    25     9    10   ar
    26    10    11    1
    27    10    12   ar
    28     6     1   ar
    29    12     7   ar
    30    28    17    2
    31    25    19    1
@<TRIPOS>MOLECULE
*****
 28 31 0 0 0
SMALL
GASTEIGER

@<TRIPOS>ATOM
      1 C         140.2104  138.3198  158.1562 C.ar    1  UNL1        0.1547
      2 C         140.0061  138.7305  159.5843 C.ar    1  UNL1        0.0384
      3 C         141.1298  138.6023  160.5697 C.ar    1  UNL1        0.0034
      4 C         142.4578  138.0635  160.1269 C.ar    1  UNL1        0.0017
      5 C         142.6621  137.6528  158.6987 C.ar    1  UNL1        0.0206
      6 C         141.5384  137.7810  157.7134 C.ar    1  UNL1        0.0994
      7 N         141.7428  137.3704  156.2853 N.ar    1  UNL1       -0.2839
      8 C         142.2071  138.2595  155.1700 C.ar    1  UNL1        0.1826
      9 N         142.2700  137.4371  153.9170 N.ar    1  UNL1       -0.2280
     10 C         141.8445  136.0396  154.2580 C.ar    1  UNL1        0.0786
     11 C         141.7597  134.8861  153.3031 C.3     1  UNL1        0.0538
     12 C         141.5187  135.9984  155.7216 C.ar    1  UNL1        0.0963
     13 C         138.8930  139.7302  156.4168 C.3     1  UNL1        0.2525
     14 O         139.0868  138.4480  157.1709 O.3     1  UNL1       -0.4700
     15 C         140.9254  139.0130  161.9978 C.2     1  UNL1        0.0079
     16 C         139.8221  138.3958  162.8051 C.2     1  UNL1        0.0937
     17 C         139.6177  138.8064  164.2333 C.2     1  UNL1        0.3691
     18 N         140.5118  139.8398  164.8519 N.2     1  UNL1       -0.0400
     19 C         140.3074  140.2505  166.2801 C.2     1  UNL1        0.1820
     20 C         141.2014  141.2839  166.8986 C.3     1  UNL1        0.1023
     21 C         140.9970  141.6945  168.3267 C.2     1  UNL1        0.0122
     22 C         139.8985  141.0716  169.1363 C.2     1  UNL1        0.1367
     23 F         139.6941  141.4823  170.5645 F       1  UNL1       -0.2045
     24 C         139.0045  140.0382  168.5178 C.2     1  UNL1        0.0397
     25 C         139.2089  139.6276  167.0896 C.2     1  UNL1        0.1232
     26 C         138.3148  138.5942  166.4710 C.2     1  UNL1        0.3789
     27 O         137.2163  137.9713  167.2806 O.2     1  UNL1       -0.2376
     28 N         138.5192  138.1836  165.0429 N.am    1  UNL1        0.0364
@<TRIPOS>BOND
     1    13    14    1
     2    14     1    1
     3     1     2   ar
     4     2     3   ar
     5     3    15    1
     6    15    16    2
     7    16    17    1
     8    17    18    1
     9    18    19    2
    10    19    20    1
    11    20    21    1
    12    21    22    2
    13    22    23    1
    14    22    24    1
    15    24    25    2
    16    25    26    1
    17    26    27    2
    18    26    28    1
    19     3     4   ar
    20     4     5   ar
    21     5     6   ar
    22     6     7    1
    23     7     8   ar
    24     8     9   ar
    25     9    10   ar
    26    10    11    1
    27    10    12   ar
    28     6     1   ar
    29    12     7   ar
    30    28    17    2
    31    25    19    1
@<TRIPOS>MOLECULE
*****
 28 31 0 0 0
SMALL
GASTEIGER

@<TRIPOS>ATOM
      1 C         139.3698  143.5816  158.2112 C.ar    1  UNL1        0.1547
      2 C         139.2506  142.8014  159.4867 C.ar    1  UNL1        0.0384
      3 C         139.9871  143.2521  160.7133 C.ar    1  UNL1        0.0034
      4 C         140.8428  144.4831  160.6642 C.ar    1  UNL1        0.0017
      5 C         140.9620  145.2633  159.3886 C.ar    1  UNL1        0.0206
      6 C         140.2255  144.8126  158.1621 C.ar    1  UNL1        0.0994
      7 N         140.3447  145.5928  156.8866 N.ar    1  UNL1       -0.2839
      8 C         141.2491  145.2671  155.7351 C.ar    1  UNL1        0.1826
      9 N         141.0438  146.3088  154.6754 N.ar    1  UNL1       -0.2280
     10 C         140.0124  147.2782  155.1720 C.ar    1  UNL1        0.0786
     11 C         139.5026  148.4792  154.4320 C.3     1  UNL1        0.0538
     12 C         139.5803  146.8357  156.5386 C.ar    1  UNL1        0.0963
     13 C         137.4563  142.2098  157.1128 C.3     1  UNL1        0.2525
     14 O         138.6333  143.1308  156.9847 O.3     1  UNL1       -0.4700
     15 C         139.8679  142.4719  161.9888 C.2     1  UNL1        0.0079
     16 C         140.1273  143.1426  163.3052 C.2     1  UNL1        0.0937
     17 C         140.0081  142.3623  164.5808 C.2     1  UNL1        0.3691
     18 N         140.3471  143.0100  165.8906 N.2     1  UNL1       -0.0400
     19 C         140.2279  142.2298  167.1662 C.2     1  UNL1        0.1820
     20 C         140.5669  142.8775  168.4760 C.3     1  UNL1        0.1023
     21 C         140.4477  142.0973  169.7515 C.2     1  UNL1        0.0122
     22 C         139.9895  140.6694  169.7172 C.2     1  UNL1        0.1367
     23 F         139.8703  139.8892  170.9929 F       1  UNL1       -0.2045
     24 C         139.6505  140.0217  168.4075 C.2     1  UNL1        0.0397
     25 C         139.7697  140.8019  167.1319 C.2     1  UNL1        0.1232
     26 C         139.4307  140.1542  165.8221 C.2     1  UNL1        0.3789
     27 O         138.9725  138.7263  165.7878 O.2     1  UNL1       -0.2376
     28 N         139.5499  140.9344  164.5466 N.am    1  UNL1        0.0364
@<TRIPOS>BOND
     1    13    14    1
     2    14     1    1
     3     1     2   ar
     4     2     3   ar
     5     3    15    1
     6    15    16    2
     7    16    17    1
     8    17    18    1
     9    18    19    2
    10    19    20    1
    11    20    21    1
    12    21    22    2
    13    22    23    1
    14    22    24    1
    15    24    25    2
    16    25    26    1
    17    26    27    2
    18    26    28    1
    19     3     4   ar
    20     4     5   ar
    21     5     6   ar
    22     6     7    1
    23     7     8   ar
    24     8     9   ar
    25     9    10   ar
    26    10    11    1
    27    10    12   ar
    28     6     1   ar
    29    12     7   ar
    30    28    17    2
    31    25    19    1
@<TRIPOS>MOLECULE
*****
 28 31 0 0 0
SMALL
GASTEIGER

@<TRIPOS>ATOM
      1 C         142.8318  135.7615  156.7092 C.ar    1  UNL1        0.1547
      2 C         142.8945  136.9593  157.6097 C.ar    1  UNL1        0.0384
      3 C         141.7877  137.9717  157.5895 C.ar    1  UNL1        0.0034
      4 C         140.6183  137.7861  156.6686 C.ar    1  UNL1        0.0017
      5 C         140.5556  136.5881  155.7680 C.ar    1  UNL1        0.0206
      6 C         141.6624  135.5759  155.7883 C.ar    1  UNL1        0.0994
      7 N         141.5996  134.3780  154.8877 N.ar    1  UNL1       -0.2839
      8 C         141.9861  134.3430  153.4388 C.ar    1  UNL1        0.1826
      9 N         141.7648  132.9481  152.9334 N.ar    1  UNL1       -0.2280
     10 C         141.2414  132.1209  154.0702 C.ar    1  UNL1        0.0786
     11 C         140.8831  130.6657  154.0097 C.3     1  UNL1        0.0538
     12 C         141.1394  133.0046  155.2779 C.ar    1  UNL1        0.0963
     13 C         143.8889  133.6030  157.6958 C.3     1  UNL1        0.2525
     14 O         143.9385  134.7492  156.7294 O.3     1  UNL1       -0.4700
     15 C         141.8505  139.1696  158.4901 C.2     1  UNL1        0.0079
     16 C         143.1696  139.6280  159.0376 C.2     1  UNL1        0.0937
     17 C         143.2323  140.8259  159.9382 C.2     1  UNL1        0.3691
     18 N         143.8467  140.7079  161.3015 N.2     1  UNL1       -0.0400
     19 C         143.9094  141.9059  162.2021 C.2     1  UNL1        0.1820
     20 C         144.5238  141.7878  163.5654 C.3     1  UNL1        0.1023
     21 C         144.5865  142.9858  164.4660 C.2     1  UNL1        0.0122
     22 C         144.0349  144.3017  164.0032 C.2     1  UNL1        0.1367
     23 F         144.0977  145.4996  164.9039 F       1  UNL1       -0.2045
     24 C         143.4206  144.4197  162.6400 C.2     1  UNL1        0.0397
     25 C         143.3578  143.2218  161.7394 C.2     1  UNL1        0.1232
     26 C         142.7435  143.3397  160.3760 C.2     1  UNL1        0.3789
     27 O         142.1919  144.6556  159.9133 O.2     1  UNL1       -0.2376
     28 N         142.6807  142.1418  159.4755 N.am    1  UNL1        0.0364
@<TRIPOS>BOND
     1    13    14    1
     2    14     1    1
     3     1     2   ar
     4     2     3   ar
     5     3    15    1
     6    15    16    2
     7    16    17    1
     8    17    18    1
     9    18    19    2
    10    19    20    1
    11    20    21    1
    12    21    22    2
    13    22    23    1
    14    22    24    1
    15    24    25    2
    16    25    26    1
    17    26    27    2
    18    26    28    1
    19     3     4   ar
    20     4     5   ar
    21     5     6   ar
    22     6     7    1
    23     7     8   ar
    24     8     9   ar
    25     9    10   ar
    26    10    11    1
    27    10    12   ar
    28     6     1   ar
    29    12     7   ar
    30    28    17    2
    31    25    19    1
@<TRIPOS>MOLECULE
*****
 28 31 0 0 0
SMALL
GASTEIGER

@<TRIPOS>ATOM
      1 C         143.7782  139.9683  161.4137 C.ar    1  UNL1        0.1547
      2 C         143.6239  138.6736  160.6722 C.ar    1  UNL1        0.0384
      3 C         142.8432  138.6309  159.3920 C.ar    1  UNL1        0.0034
      4 C         142.2168  139.8829  158.8534 C.ar    1  UNL1        0.0017
      5 C         142.3711  141.1776  159.5950 C.ar    1  UNL1        0.0206
      6 C         143.1517  141.2203  160.8751 C.ar    1  UNL1        0.0994
      7 N         143.3060  142.5150  161.6167 N.ar    1  UNL1       -0.2839
      8 C         144.5620  143.3287  161.7181 C.ar    1  UNL1        0.1826
      9 N         144.2636  144.5400  162.5512 N.ar    1  UNL1       -0.2280
     10 C         142.8231  144.4749  162.9645 C.ar    1  UNL1        0.0786
     11 C         142.1012  145.4840  163.8073 C.3     1  UNL1        0.0538
     12 C         142.2313  143.2234  162.3870 C.ar    1  UNL1        0.0963
     13 C         144.1131  139.1961  163.8716 C.3     1  UNL1        0.2525
     14 O         144.5588  140.0110  162.6938 O.3     1  UNL1       -0.4700
     15 C         142.6889  137.3362  158.6505 C.2     1  UNL1        0.0079
     16 C         142.8139  137.3084  157.1560 C.2     1  UNL1        0.0937
     17 C         142.6596  136.0136  156.4144 C.2     1  UNL1        0.3691
     18 N         142.3372  136.0222  154.9495 N.2     1  UNL1       -0.0400
     19 C         142.1829  134.7274  154.2079 C.2     1  UNL1        0.1820
     20 C         141.8605  134.7360  152.7430 C.3     1  UNL1        0.1023
     21 C         141.7063  133.4413  152.0015 C.2     1  UNL1        0.0122
     22 C         141.8745  132.1380  152.7248 C.2     1  UNL1        0.1367
     23 F         141.7202  130.8433  151.9832 F       1  UNL1       -0.2045
     24 C         142.1969  132.1295  154.1897 C.2     1  UNL1        0.0397
     25 C         142.3511  133.4242  154.9312 C.2     1  UNL1        0.1232
     26 C         142.6735  133.4157  156.3962 C.2     1  UNL1        0.3789
     27 O         142.8417  132.1124  157.1196 O.2     1  UNL1       -0.2376
     28 N         142.8278  134.7104  157.1377 N.am    1  UNL1        0.0364
@<TRIPOS>BOND
     1    13    14    1
     2    14     1    1
     3     1     2   ar
     4     2     3   ar
     5     3    15    1
     6    15    16    2
     7    16    17    1
     8    17    18    1
     9    18    19    2
    10    19    20    1
    11    20    21    1
    12    21    22    2
    13    22    23    1
    14    22    24    1
    15    24    25    2
    16    25    26    1
    17    26    27    2
    18    26    28    1
    19     3     4   ar
    20     4     5   ar
    21     5     6   ar
    22     6     7    1
    23     7     8   ar
    24     8     9   ar
    25     9    10   ar
    26    10    11    1
    27    10    12   ar
    28     6     1   ar
    29    12     7   ar
    30    28    17    2
    31    25    19    1
@<TRIPOS>MOLECULE
*****
 28 31 0 0 0
SMALL
GASTEIGER

@<TRIPOS>ATOM
      1 C         142.0717  140.8191  164.2254 C.ar    1  UNL1        0.1547
      2 C         142.0018  140.1317  162.8940 C.ar    1  UNL1        0.0384
      3 C         141.3747  138.7736  162.7831 C.ar    1  UNL1        0.0034
      4 C         140.8175  138.1029  164.0036 C.ar    1  UNL1        0.0017
      5 C         140.8874  138.7903  165.3350 C.ar    1  UNL1        0.0206
      6 C         141.5145  140.1484  165.4459 C.ar    1  UNL1        0.0994
      7 N         141.5845  140.8357  166.7773 N.ar    1  UNL1       -0.2839
      8 C         142.5142  140.4873  167.9016 C.ar    1  UNL1        0.1826
      9 N         142.2413  141.4285  169.0374 N.ar    1  UNL1       -0.2280
     10 C         141.1428  142.3585  168.6149 C.ar    1  UNL1        0.0786
     11 C         140.5537  143.4612  169.4437 C.3     1  UNL1        0.0538
     12 C         140.7368  141.9922  167.2181 C.ar    1  UNL1        0.0963
     13 C         144.1108  142.3137  164.8239 C.3     1  UNL1        0.2525
     14 O         142.6989  142.1771  164.3362 O.3     1  UNL1       -0.4700
     15 C         141.3047  138.0863  161.4517 C.2     1  UNL1        0.0079
     16 C         141.3378  138.8938  160.1881 C.2     1  UNL1        0.0937
     17 C         141.2678  138.2065  158.8566 C.2     1  UNL1        0.3691
     18 N         142.4831  137.5272  158.2985 N.2     1  UNL1       -0.0400
     19 C         142.4132  136.8399  156.9670 C.2     1  UNL1        0.1820
     20 C         143.6285  136.1606  156.4089 C.3     1  UNL1        0.1023
     21 C         143.5586  135.4733  155.0775 C.2     1  UNL1        0.0122
     22 C         142.2733  135.4653  154.3042 C.2     1  UNL1        0.1367
     23 F         142.2033  134.7780  152.9727 F       1  UNL1       -0.2045
     24 C         141.0580  136.1446  154.8623 C.2     1  UNL1        0.0397
     25 C         141.1279  136.8319  156.1937 C.2     1  UNL1        0.1232
     26 C         139.9126  137.5112  156.7519 C.2     1  UNL1        0.3789
     27 O         138.6273  137.5032  155.9787 O.2     1  UNL1       -0.2376
     28 N         139.9825  138.1985  158.0833 N.am    1  UNL1        0.0364
@<TRIPOS>BOND
     1    13    14    1
     2    14     1    1
     3     1     2   ar
     4     2     3   ar
     5     3    15    1
     6    15    16    2
     7    16    17    1
     8    17    18    1
     9    18    19    2
    10    19    20    1
    11    20    21    1
    12    21    22    2
    13    22    23    1
    14    22    24    1
    15    24    25    2
    16    25    26    1
    17    26    27    2
    18    26    28    1
    19     3     4   ar
    20     4     5   ar
    21     5     6   ar
    22     6     7    1
    23     7     8   ar
    24     8     9   ar
    25     9    10   ar
    26    10    11    1
    27    10    12   ar
    28     6     1   ar
    29    12     7   ar
    30    28    17    2
    31    25    19    1
@<TRIPOS>MOLECULE
*****
 28 31 0 0 0
SMALL
GASTEIGER

@<TRIPOS>ATOM
      1 C         145.1179  140.3528  156.6764 C.ar    1  UNL1        0.1547
      2 C         144.0719  140.2524  157.7468 C.ar    1  UNL1        0.0384
      3 C         143.8715  141.3861  158.7083 C.ar    1  UNL1        0.0034
      4 C         144.7172  142.6202  158.5995 C.ar    1  UNL1        0.0017
      5 C         145.7633  142.7205  157.5291 C.ar    1  UNL1        0.0206
      6 C         145.9636  141.5868  156.5676 C.ar    1  UNL1        0.0994
      7 N         147.0097  141.6872  155.4973 N.ar    1  UNL1       -0.2839
      8 C         146.7573  141.7352  154.0195 C.ar    1  UNL1        0.1826
      9 N         148.0835  141.8349  153.3256 N.ar    1  UNL1       -0.2280
     10 C         149.1556  141.8485  154.3748 C.ar    1  UNL1        0.0786
     11 C         150.6320  141.9377  154.1255 C.3     1  UNL1        0.0538
     12 C         148.4920  141.7572  155.7169 C.ar    1  UNL1        0.0963
     13 C         144.1694  138.7273  154.8853 C.3     1  UNL1        0.2525
     14 O         145.3183  139.2191  155.7149 O.3     1  UNL1       -0.4700
     15 C         142.8254  141.2858  159.7786 C.2     1  UNL1        0.0079
     16 C         143.1437  140.6052  161.0769 C.2     1  UNL1        0.0937
     17 C         142.0976  140.5048  162.1473 C.2     1  UNL1        0.3691
     18 N         141.5621  139.1626  162.5491 N.2     1  UNL1       -0.0400
     19 C         140.5160  139.0622  163.6195 C.2     1  UNL1        0.1820
     20 C         139.9805  137.7199  164.0213 C.3     1  UNL1        0.1023
     21 C         138.9345  137.6195  165.0917 C.2     1  UNL1        0.0122
     22 C         138.4239  138.8615  165.7602 C.2     1  UNL1        0.1367
     23 F         137.3778  138.7611  166.8306 F       1  UNL1       -0.2045
     24 C         138.9594  140.2037  165.3584 C.2     1  UNL1        0.0397
     25 C         140.0055  140.3041  164.2881 C.2     1  UNL1        0.1232
     26 C         140.5410  141.6464  163.8862 C.2     1  UNL1        0.3789
     27 O         140.0305  142.8884  164.5548 O.2     1  UNL1       -0.2376
     28 N         141.5870  141.7468  162.8159 N.am    1  UNL1        0.0364
@<TRIPOS>BOND
     1    13    14    1
     2    14     1    1
     3     1     2   ar
     4     2     3   ar
     5     3    15    1
     6    15    16    2
     7    16    17    1
     8    17    18    1
     9    18    19    2
    10    19    20    1
    11    20    21    1
    12    21    22    2
    13    22    23    1
    14    22    24    1
    15    24    25    2
    16    25    26    1
    17    26    27    2
    18    26    28    1
    19     3     4   ar
    20     4     5   ar
    21     5     6   ar
    22     6     7    1
    23     7     8   ar
    24     8     9   ar
    25     9    10   ar
    26    10    11    1
    27    10    12   ar
    28     6     1   ar
    29    12     7   ar
    30    28    17    2
    31    25    19    1
@<TRIPOS>MOLECULE
*****
 28 31 0 0 0
SMALL
GASTEIGER

@<TRIPOS>ATOM
      1 C         142.6898  136.3080  156.9531 C.ar    1  UNL1        0.1547
      2 C         142.6516  137.2743  158.0997 C.ar    1  UNL1        0.0384
      3 C         141.4754  138.1895  158.2705 C.ar    1  UNL1        0.0034
      4 C         140.3374  138.1383  157.2946 C.ar    1  UNL1        0.0017
      5 C         140.3757  137.1719  156.1480 C.ar    1  UNL1        0.0206
      6 C         141.5518  136.2568  155.9772 C.ar    1  UNL1        0.0994
      7 N         141.5900  135.2906  154.8306 N.ar    1  UNL1       -0.2839
      8 C         141.9576  135.6178  153.4136 C.ar    1  UNL1        0.1826
      9 N         141.8621  134.3568  152.6068 N.ar    1  UNL1       -0.2280
     10 C         141.4354  133.2502  153.5252 C.ar    1  UNL1        0.0786
     11 C         141.2155  131.8181  153.1374 C.3     1  UNL1        0.0538
     12 C         141.2672  133.8273  154.8995 C.ar    1  UNL1        0.0963
     13 C         143.8705  134.0462  157.4427 C.3     1  UNL1        0.2525
     14 O         143.8660  135.3930  156.7824 O.3     1  UNL1       -0.4700
     15 C         141.4372  139.1557  159.4172 C.2     1  UNL1        0.0079
     16 C         140.1395  139.4442  160.1119 C.2     1  UNL1        0.0937
     17 C         140.1013  140.4106  161.2586 C.2     1  UNL1        0.3691
     18 N         138.9361  141.3420  161.4159 N.2     1  UNL1       -0.0400
     19 C         138.8979  142.3083  162.5626 C.2     1  UNL1        0.1820
     20 C         137.7328  143.2397  162.7200 C.3     1  UNL1        0.1023
     21 C         137.6946  144.2060  163.8666 C.2     1  UNL1        0.0122
     22 C         138.8215  144.2408  164.8559 C.2     1  UNL1        0.1367
     23 F         138.7833  145.2071  166.0026 F       1  UNL1       -0.2045
     24 C         139.9867  143.3094  164.6986 C.2     1  UNL1        0.0397
     25 C         140.0249  142.3431  163.5519 C.2     1  UNL1        0.1232
     26 C         141.1901  141.4116  163.3945 C.2     1  UNL1        0.3789
     27 O         142.3171  141.4464  164.3838 O.2     1  UNL1       -0.2376
     28 N         141.2283  140.4454  162.2479 N.am    1  UNL1        0.0364
@<TRIPOS>BOND
     1    13    14    1
     2    14     1    1
     3     1     2   ar
     4     2     3   ar
     5     3    15    1
     6    15    16    2
     7    16    17    1
     8    17    18    1
     9    18    19    2
    10    19    20    1
    11    20    21    1
    12    21    22    2
    13    22    23    1
    14    22    24    1
    15    24    25    2
    16    25    26    1
    17    26    27    2
    18    26    28    1
    19     3     4   ar
    20     4     5   ar
    21     5     6   ar
    22     6     7    1
    23     7     8   ar
    24     8     9   ar
    25     9    10   ar
    26    10    11    1
    27    10    12   ar
    28     6     1   ar
    29    12     7   ar
    30    28    17    2
    31    25    19    1
