@<TRIPOS>MOLECULE
*****
 34 36 0 0 0
SMALL
GASTEIGER

@<TRIPOS>ATOM
      1 C         139.2418  139.1049  167.1162 C.3     1  UNL1        0.0499
      2 C         141.2007  140.7259  167.6505 C.ar    1  UNL1       -0.0027
      3 C         141.8504  141.7212  168.5655 C.ar    1  UNL1       -0.0219
      4 C         143.1595  142.3468  168.1849 C.3     1  UNL1        0.0310
      5 C         141.1910  142.0909  169.8611 C.ar    1  UNL1       -0.0020
      6 C         139.8820  141.4653  170.2417 C.ar    1  UNL1        0.0290
      7 C         139.2323  140.4700  169.3268 C.ar    1  UNL1        0.1362
      8 F         137.9231  139.8443  169.7074 F       1  UNL1       -0.2045
      9 C         139.8916  140.1003  168.0312 C.ar    1  UNL1        0.0068
     10 C         143.1787  139.6168  163.7637 C.ar    1  UNL1        0.3201
     11 N         142.2423  140.7871  163.8215 N.ar    1  UNL1       -0.1927
     12 C         141.5829  141.1568  165.1171 C.ar    1  UNL1        0.1051
     13 C         141.8600  140.3562  166.3549 C.ar    1  UNL1        0.0380
     14 C         142.7964  139.1859  166.2971 C.ar    1  UNL1        0.1051
     15 N         143.4558  138.8162  165.0015 N.ar    1  UNL1       -0.1927
     16 C         143.4442  137.9851  161.7595 C.3     1  UNL1        0.2559
     17 O         143.8381  139.2471  162.4681 O.3     1  UNL1       -0.4426
     18 C         138.0141  139.4864  166.3434 C.3     1  UNL1        0.0944
     19 N         138.1282  140.3935  165.1541 N.am    1  UNL1       -0.3005
     20 C         138.4046  139.8189  163.7964 C.2     1  UNL1        0.2474
     21 O         138.5670  138.3372  163.6279 O.2     1  UNL1       -0.2701
     22 H         138.0217  141.3659  165.2647 H       1  UNL1        0.1498
     23 C         138.5187  140.7259  162.6073 C.ar    1  UNL1        0.0727
     24 C         139.4757  140.3950  161.5006 C.ar    1  UNL1        0.0109
     25 C         139.5897  141.3020  160.3114 C.ar    1  UNL1        0.0579
     26 C         138.7468  142.5400  160.2288 C.ar    1  UNL1        0.2251
     27 N         137.7899  142.8710  161.3354 N.ar    1  UNL1       -0.2100
     28 C         137.6758  141.9639  162.5247 C.ar    1  UNL1        0.1065
     29 O         138.8609  143.4471  159.0396 O.3     1  UNL1       -0.4509
     30 C         140.1398  144.1871  158.7806 C.3     1  UNL1        0.3095
     31 C         140.9735  144.6689  159.9307 C.3     1  UNL1        0.4381
     32 F         141.8073  145.1507  161.0808 F       1  UNL1       -0.1663
     33 F         139.9355  145.7036  160.2497 F       1  UNL1       -0.1663
     34 F         142.0115  143.6341  159.6116 F       1  UNL1       -0.1663
@<TRIPOS>BOND
     1    16    17    1
     2    17    10    1
     3    10    11   ar
     4    11    12   ar
     5    12    13   ar
     6    13     2    1
     7     2     3   ar
     8     3     4    1
     9     3     5   ar
    10     5     6   ar
    11     6     7   ar
    12     7     8    1
    13     7     9   ar
    14     9     1    1
    15     1    18    1
    16    18    19    1
    17    19    20   am
    18    20    21    2
    19    20    23    1
    20    23    24   ar
    21    24    25   ar
    22    25    26   ar
    23    26    29    1
    24    29    30    1
    25    30    31    1
    26    31    32    1
    27    31    33    1
    28    31    34    1
    29    26    27   ar
    30    27    28   ar
    31    13    14   ar
    32    14    15   ar
    33    15    10   ar
    34     9     2   ar
    35    28    23   ar
    36    19    22    1
@<TRIPOS>MOLECULE
*****
 34 36 0 0 0
SMALL
GASTEIGER

@<TRIPOS>ATOM
      1 C         143.3338  137.9448  161.9102 C.3     1  UNL1        0.0499
      2 C         141.2021  138.5894  160.5721 C.ar    1  UNL1       -0.0027
      3 C         139.7078  138.6697  160.4692 C.ar    1  UNL1       -0.0219
      4 C         139.0703  139.2339  159.2341 C.3     1  UNL1        0.0310
      5 C         138.8509  138.1859  161.6013 C.ar    1  UNL1       -0.0020
      6 C         139.4883  137.6217  162.8363 C.ar    1  UNL1        0.0290
      7 C         140.9826  137.5414  162.9393 C.ar    1  UNL1        0.1362
      8 F         141.6200  136.9772  164.1744 F       1  UNL1       -0.2045
      9 C         141.8394  138.0252  161.8072 C.ar    1  UNL1        0.0068
     10 C         143.7727  140.0408  157.1758 C.ar    1  UNL1        0.3201
     11 N         143.3038  141.0036  158.2261 N.ar    1  UNL1       -0.1927
     12 C         142.4469  140.5198  159.3582 C.ar    1  UNL1        0.1051
     13 C         142.0590  139.0732  159.4400 C.ar    1  UNL1        0.0380
     14 C         142.5279  138.1104  158.3898 C.ar    1  UNL1        0.1051
     15 N         143.3848  138.5942  157.2577 N.ar    1  UNL1       -0.1927
     16 C         145.8738  141.3125  156.3284 C.3     1  UNL1        0.2559
     17 O         144.6296  140.5246  156.0437 O.3     1  UNL1       -0.4426
     18 C         144.1003  139.0501  162.5741 C.3     1  UNL1        0.0944
     19 N         144.0018  139.2449  164.0582 N.am    1  UNL1       -0.3005
     20 C         143.0206  140.2294  164.6219 C.2     1  UNL1        0.2474
     21 O         142.1378  141.0192  163.7016 O.2     1  UNL1       -0.2701
     22 H         144.5812  138.7265  164.6622 H       1  UNL1        0.1498
     23 C         142.9221  140.4241  166.1059 C.ar    1  UNL1        0.0727
     24 C         142.9047  141.8094  166.6811 C.ar    1  UNL1        0.0109
     25 C         142.8063  142.0041  168.1651 C.ar    1  UNL1        0.0579
     26 C         142.7252  140.8136  169.0740 C.ar    1  UNL1        0.2251
     27 N         142.7426  139.4284  168.4989 N.ar    1  UNL1       -0.2100
     28 C         142.8411  139.2336  167.0148 C.ar    1  UNL1        0.1065
     29 O         142.6268  141.0083  170.5580 O.3     1  UNL1       -0.4509
     30 C         141.3150  141.3867  171.1795 C.3     1  UNL1        0.3095
     31 C         140.0294  141.0239  170.4971 C.3     1  UNL1        0.4381
     32 F         138.7438  140.6610  169.8146 F       1  UNL1       -0.1663
     33 F         140.1986  139.5995  170.9357 F       1  UNL1       -0.1663
     34 F         139.8602  142.4483  170.0585 F       1  UNL1       -0.1663
@<TRIPOS>BOND
     1    16    17    1
     2    17    10    1
     3    10    11   ar
     4    11    12   ar
     5    12    13   ar
     6    13     2    1
     7     2     3   ar
     8     3     4    1
     9     3     5   ar
    10     5     6   ar
    11     6     7   ar
    12     7     8    1
    13     7     9   ar
    14     9     1    1
    15     1    18    1
    16    18    19    1
    17    19    20   am
    18    20    21    2
    19    20    23    1
    20    23    24   ar
    21    24    25   ar
    22    25    26   ar
    23    26    29    1
    24    29    30    1
    25    30    31    1
    26    31    32    1
    27    31    33    1
    28    31    34    1
    29    26    27   ar
    30    27    28   ar
    31    13    14   ar
    32    14    15   ar
    33    15    10   ar
    34     9     2   ar
    35    28    23   ar
    36    19    22    1
@<TRIPOS>MOLECULE
*****
 34 36 0 0 0
SMALL
GASTEIGER

@<TRIPOS>ATOM
      1 C         139.5699  140.5951  161.4720 C.3     1  UNL1        0.0499
      2 C         139.9437  143.1539  161.7227 C.ar    1  UNL1       -0.0027
      3 C         139.5222  144.4794  162.2842 C.ar    1  UNL1       -0.0219
      4 C         140.3175  145.7128  161.9733 C.3     1  UNL1        0.0310
      5 C         138.3055  144.5717  163.1566 C.ar    1  UNL1       -0.0020
      6 C         137.5103  143.3385  163.4675 C.ar    1  UNL1        0.0290
      7 C         137.9317  142.0130  162.9060 C.ar    1  UNL1        0.1362
      8 F         137.1365  140.7797  163.2169 F       1  UNL1       -0.2045
      9 C         139.1484  141.9207  162.0336 C.ar    1  UNL1        0.0068
     10 C         143.5938  142.8771  159.1054 C.ar    1  UNL1        0.3201
     11 N         143.7230  142.7213  160.5917 N.ar    1  UNL1       -0.1927
     12 C         142.5063  142.8136  161.4641 C.ar    1  UNL1        0.1051
     13 C         141.1604  143.0617  160.8503 C.ar    1  UNL1        0.0380
     14 C         141.0311  143.2174  159.3640 C.ar    1  UNL1        0.1051
     15 N         142.2479  143.1252  158.4916 N.ar    1  UNL1       -0.1927
     16 C         144.9856  141.6143  157.3115 C.3     1  UNL1        0.2559
     17 O         144.8105  142.7848  158.2330 O.3     1  UNL1       -0.4426
     18 C         140.4494  139.6850  162.2771 C.3     1  UNL1        0.0944
     19 N         140.6846  139.9633  163.7322 N.am    1  UNL1       -0.3005
     20 C         139.8867  139.2358  164.7734 C.2     1  UNL1        0.2474
     21 O         138.8536  138.2300  164.3595 O.2     1  UNL1       -0.2701
     22 H         141.3626  140.6234  164.0039 H       1  UNL1        0.1498
     23 C         140.1218  139.5140  166.2284 C.ar    1  UNL1        0.0727
     24 C         141.5151  139.7510  166.7311 C.ar    1  UNL1        0.0109
     25 C         141.7503  140.0293  168.1862 C.ar    1  UNL1        0.0579
     26 C         140.5922  140.0705  169.1386 C.ar    1  UNL1        0.2251
     27 N         139.1990  139.8336  168.6360 N.ar    1  UNL1       -0.2100
     28 C         138.9638  139.5553  167.1809 C.ar    1  UNL1        0.1065
     29 O         140.8274  140.3488  170.5937 O.3     1  UNL1       -0.4509
     30 C         141.0910  141.7512  171.0561 C.3     1  UNL1        0.3095
     31 C         140.6408  142.9133  170.2213 C.3     1  UNL1        0.4381
     32 F         140.1906  144.0754  169.3865 F       1  UNL1       -0.1663
     33 F         142.0673  143.2098  169.8648 F       1  UNL1       -0.1663
     34 F         139.2143  142.6167  170.5778 F       1  UNL1       -0.1663
@<TRIPOS>BOND
     1    16    17    1
     2    17    10    1
     3    10    11   ar
     4    11    12   ar
     5    12    13   ar
     6    13     2    1
     7     2     3   ar
     8     3     4    1
     9     3     5   ar
    10     5     6   ar
    11     6     7   ar
    12     7     8    1
    13     7     9   ar
    14     9     1    1
    15     1    18    1
    16    18    19    1
    17    19    20   am
    18    20    21    2
    19    20    23    1
    20    23    24   ar
    21    24    25   ar
    22    25    26   ar
    23    26    29    1
    24    29    30    1
    25    30    31    1
    26    31    32    1
    27    31    33    1
    28    31    34    1
    29    26    27   ar
    30    27    28   ar
    31    13    14   ar
    32    14    15   ar
    33    15    10   ar
    34     9     2   ar
    35    28    23   ar
    36    19    22    1
@<TRIPOS>MOLECULE
*****
 34 36 0 0 0
SMALL
GASTEIGER

@<TRIPOS>ATOM
      1 C         144.6473  143.2871  164.8556 C.3     1  UNL1        0.0499
      2 C         142.0805  142.9830  165.1181 C.ar    1  UNL1       -0.0027
      3 C         140.6811  143.3901  164.7631 C.ar    1  UNL1       -0.0219
      4 C         139.5136  142.6790  165.3806 C.3     1  UNL1        0.0310
      5 C         140.4492  144.5084  163.7907 C.ar    1  UNL1       -0.0020
      6 C         141.6167  145.2196  163.1732 C.ar    1  UNL1        0.0290
      7 C         143.0160  144.8125  163.5282 C.ar    1  UNL1        0.1362
      8 F         144.1835  145.5237  162.9108 F       1  UNL1       -0.2045
      9 C         143.2479  143.6942  164.5007 C.ar    1  UNL1        0.0068
     10 C         142.7762  139.6282  168.0355 C.ar    1  UNL1        0.3201
     11 N         142.5625  139.3259  166.5819 N.ar    1  UNL1       -0.1927
     12 C         142.3306  140.4441  165.6094 C.ar    1  UNL1        0.1051
     13 C         142.3124  141.8647  166.0906 C.ar    1  UNL1        0.0380
     14 C         142.5260  142.1670  167.5441 C.ar    1  UNL1        0.1051
     15 N         142.7580  141.0488  168.5166 N.ar    1  UNL1       -0.1927
     16 C         142.5694  138.6539  170.4350 C.3     1  UNL1        0.2559
     17 O         143.0081  138.5099  169.0079 O.3     1  UNL1       -0.4426
     18 C         145.3055  142.1522  164.1285 C.3     1  UNL1        0.0944
     19 N         144.6820  141.5979  162.8819 N.am    1  UNL1       -0.3005
     20 C         144.5300  140.1151  162.7148 C.2     1  UNL1        0.2474
     21 O         145.0016  139.1864  163.7942 O.2     1  UNL1       -0.2701
     22 H         144.3724  142.2074  162.1734 H       1  UNL1        0.1498
     23 C         143.9065  139.5609  161.4682 C.ar    1  UNL1        0.0727
     24 C         143.4256  140.4900  160.3932 C.ar    1  UNL1        0.0109
     25 C         142.8021  139.9358  159.1466 C.ar    1  UNL1        0.0579
     26 C         142.6593  138.4525  158.9749 C.ar    1  UNL1        0.2251
     27 N         143.1401  137.5234  160.0499 N.ar    1  UNL1       -0.2100
     28 C         143.7637  138.0776  161.2965 C.ar    1  UNL1        0.1065
     29 O         142.0358  137.8983  157.7283 O.3     1  UNL1       -0.4509
     30 C         142.8784  137.6598  156.5104 C.3     1  UNL1        0.3095
     31 C         143.5136  136.3192  156.2887 C.3     1  UNL1        0.4381
     32 F         144.1489  134.9785  156.0670 F       1  UNL1       -0.1663
     33 F         144.6406  136.9757  155.5480 F       1  UNL1       -0.1663
     34 F         142.3866  135.6626  157.0295 F       1  UNL1       -0.1663
@<TRIPOS>BOND
     1    16    17    1
     2    17    10    1
     3    10    11   ar
     4    11    12   ar
     5    12    13   ar
     6    13     2    1
     7     2     3   ar
     8     3     4    1
     9     3     5   ar
    10     5     6   ar
    11     6     7   ar
    12     7     8    1
    13     7     9   ar
    14     9     1    1
    15     1    18    1
    16    18    19    1
    17    19    20   am
    18    20    21    2
    19    20    23    1
    20    23    24   ar
    21    24    25   ar
    22    25    26   ar
    23    26    29    1
    24    29    30    1
    25    30    31    1
    26    31    32    1
    27    31    33    1
    28    31    34    1
    29    26    27   ar
    30    27    28   ar
    31    13    14   ar
    32    14    15   ar
    33    15    10   ar
    34     9     2   ar
    35    28    23   ar
    36    19    22    1
@<TRIPOS>MOLECULE
*****
 34 36 0 0 0
SMALL
GASTEIGER

@<TRIPOS>ATOM
      1 C         141.9704  141.4767  161.3340 C.3     1  UNL1        0.0499
      2 C         140.0035  142.9433  162.1887 C.ar    1  UNL1       -0.0027
      3 C         139.2569  144.2442  162.1870 C.ar    1  UNL1       -0.0219
      4 C         138.0365  144.4098  163.0434 C.3     1  UNL1        0.0310
      5 C         139.7307  145.3797  161.3290 C.ar    1  UNL1       -0.0020
      6 C         140.9510  145.2142  160.4726 C.ar    1  UNL1        0.0290
      7 C         141.6976  143.9133  160.4743 C.ar    1  UNL1        0.1362
      8 F         142.9179  143.7477  159.6179 F       1  UNL1       -0.2045
      9 C         141.2238  142.7778  161.3323 C.ar    1  UNL1        0.0068
     10 C         138.5823  139.5368  164.7628 C.ar    1  UNL1        0.3201
     11 N         139.2951  140.7005  165.3853 N.ar    1  UNL1       -0.1927
     12 C         139.7688  141.8360  164.5273 C.ar    1  UNL1        0.1051
     13 C         139.5297  141.8078  163.0467 C.ar    1  UNL1        0.0380
     14 C         138.8169  140.6440  162.4242 C.ar    1  UNL1        0.1051
     15 N         138.3432  139.5085  163.2823 N.ar    1  UNL1       -0.1927
     16 C         137.7266  138.6498  167.0499 C.3     1  UNL1        0.2559
     17 O         138.1085  138.4013  165.6208 O.3     1  UNL1       -0.4426
     18 C         143.1476  141.2887  162.2444 C.3     1  UNL1        0.0944
     19 N         142.9859  141.4641  163.7254 N.am    1  UNL1       -0.3005
     20 C         143.1150  140.2817  164.6392 C.2     1  UNL1        0.2474
     21 O         143.4057  138.9238  164.0721 O.2     1  UNL1       -0.2701
     22 H         142.7951  142.3554  164.0976 H       1  UNL1        0.1498
     23 C         142.9534  140.4572  166.1200 C.ar    1  UNL1        0.0727
     24 C         142.8061  139.2557  167.0060 C.ar    1  UNL1        0.0109
     25 C         142.6445  139.4312  168.4869 C.ar    1  UNL1        0.0579
     26 C         142.6301  140.8080  169.0819 C.ar    1  UNL1        0.2251
     27 N         142.7773  142.0095  168.1960 N.ar    1  UNL1       -0.2100
     28 C         142.9390  141.8340  166.7150 C.ar    1  UNL1        0.1065
     29 O         142.4684  140.9835  170.5628 O.3     1  UNL1       -0.4509
     30 C         141.1310  141.3534  171.1327 C.3     1  UNL1        0.3095
     31 C         139.8741  140.8989  170.4520 C.3     1  UNL1        0.4381
     32 F         138.6170  140.4444  169.7713 F       1  UNL1       -0.1663
     33 F         139.5972  142.3089  170.0217 F       1  UNL1       -0.1663
     34 F         140.1509  139.4889  170.8823 F       1  UNL1       -0.1663
@<TRIPOS>BOND
     1    16    17    1
     2    17    10    1
     3    10    11   ar
     4    11    12   ar
     5    12    13   ar
     6    13     2    1
     7     2     3   ar
     8     3     4    1
     9     3     5   ar
    10     5     6   ar
    11     6     7   ar
    12     7     8    1
    13     7     9   ar
    14     9     1    1
    15     1    18    1
    16    18    19    1
    17    19    20   am
    18    20    21    2
    19    20    23    1
    20    23    24   ar
    21    24    25   ar
    22    25    26   ar
    23    26    29    1
    24    29    30    1
    25    30    31    1
    26    31    32    1
    27    31    33    1
    28    31    34    1
    29    26    27   ar
    30    27    28   ar
    31    13    14   ar
    32    14    15   ar
    33    15    10   ar
    34     9     2   ar
    35    28    23   ar
    36    19    22    1
@<TRIPOS>MOLECULE
*****
 34 36 0 0 0
SMALL
GASTEIGER

@<TRIPOS>ATOM
      1 C         142.7240  140.4293  165.8036 C.3     1  UNL1        0.0499
      2 C         140.2926  139.6370  166.2631 C.ar    1  UNL1       -0.0027
      3 C         139.1333  139.4793  167.2016 C.ar    1  UNL1       -0.0219
      4 C         137.8613  138.8448  166.7225 C.3     1  UNL1        0.0310
      5 C         139.2458  139.9560  168.6194 C.ar    1  UNL1       -0.0020
      6 C         140.5177  140.5905  169.0986 C.ar    1  UNL1        0.0290
      7 C         141.6771  140.7482  168.1600 C.ar    1  UNL1        0.1362
      8 F         142.9491  141.3828  168.6392 F       1  UNL1       -0.2045
      9 C         141.5645  140.2715  166.7422 C.ar    1  UNL1        0.0068
     10 C         139.9550  138.2069  162.0097 C.ar    1  UNL1        0.3201
     11 N         139.5625  139.6110  162.3623 N.ar    1  UNL1       -0.1927
     12 C         139.6751  140.0877  163.7800 C.ar    1  UNL1        0.1051
     13 C         140.1801  139.1603  164.8453 C.ar    1  UNL1        0.0380
     14 C         140.5726  137.7562  164.4928 C.ar    1  UNL1        0.1051
     15 N         140.4600  137.2795  163.0750 N.ar    1  UNL1       -0.1927
     16 C         139.7425  138.7234  159.4724 C.3     1  UNL1        0.2559
     17 O         139.8424  137.7302  160.5920 O.3     1  UNL1       -0.4426
     18 C         143.2548  141.7968  165.4907 C.3     1  UNL1        0.0944
     19 N         142.8168  142.5038  164.2423 N.am    1  UNL1       -0.3005
     20 C         141.5421  143.2944  164.2360 C.2     1  UNL1        0.2474
     21 O         140.7054  143.3782  165.4782 O.2     1  UNL1       -0.2701
     22 H         143.3660  142.4489  163.4270 H       1  UNL1        0.1498
     23 C         141.1042  144.0014  162.9877 C.ar    1  UNL1        0.0727
     24 C         141.9652  143.9584  161.7601 C.ar    1  UNL1        0.0109
     25 C         141.5273  144.6653  160.5117 C.ar    1  UNL1        0.0579
     26 C         140.2283  145.4152  160.4909 C.ar    1  UNL1        0.2251
     27 N         139.3673  145.4582  161.7184 N.ar    1  UNL1       -0.2100
     28 C         139.8053  144.7512  162.9668 C.ar    1  UNL1        0.1065
     29 O         139.7904  146.1221  159.2425 O.3     1  UNL1       -0.4509
     30 C         140.4839  145.8456  157.9414 C.3     1  UNL1        0.3095
     31 C         139.8339  146.2363  156.6473 C.3     1  UNL1        0.4381
     32 F         139.1839  146.6270  155.3531 F       1  UNL1       -0.1663
     33 F         139.2090  147.4228  157.3193 F       1  UNL1       -0.1663
     34 F         140.4588  145.0497  155.9753 F       1  UNL1       -0.1663
@<TRIPOS>BOND
     1    16    17    1
     2    17    10    1
     3    10    11   ar
     4    11    12   ar
     5    12    13   ar
     6    13     2    1
     7     2     3   ar
     8     3     4    1
     9     3     5   ar
    10     5     6   ar
    11     6     7   ar
    12     7     8    1
    13     7     9   ar
    14     9     1    1
    15     1    18    1
    16    18    19    1
    17    19    20   am
    18    20    21    2
    19    20    23    1
    20    23    24   ar
    21    24    25   ar
    22    25    26   ar
    23    26    29    1
    24    29    30    1
    25    30    31    1
    26    31    32    1
    27    31    33    1
    28    31    34    1
    29    26    27   ar
    30    27    28   ar
    31    13    14   ar
    32    14    15   ar
    33    15    10   ar
    34     9     2   ar
    35    28    23   ar
    36    19    22    1
@<TRIPOS>MOLECULE
*****
 34 36 0 0 0
SMALL
GASTEIGER

@<TRIPOS>ATOM
      1 C         139.3213  138.2398  161.8533 C.3     1  UNL1        0.0499
      2 C         141.1593  139.2707  160.3338 C.ar    1  UNL1       -0.0027
      3 C         142.6083  139.4750  160.0040 C.ar    1  UNL1       -0.0219
      4 C         142.9974  140.3016  158.8143 C.3     1  UNL1        0.0310
      5 C         143.6681  138.8527  160.8639 C.ar    1  UNL1       -0.0020
      6 C         143.2791  138.0261  162.0536 C.ar    1  UNL1        0.0290
      7 C         141.8302  137.8218  162.3834 C.ar    1  UNL1        0.1362
      8 F         141.4411  136.9952  163.5731 F       1  UNL1       -0.2045
      9 C         140.7703  138.4441  161.5235 C.ar    1  UNL1        0.0068
     10 C         137.9796  141.1376  157.7542 C.ar    1  UNL1        0.3201
     11 N         138.5728  141.9133  158.8928 N.ar    1  UNL1       -0.1927
     12 C         139.6327  141.2910  159.7526 C.ar    1  UNL1        0.1051
     13 C         140.0994  139.8930  159.4740 C.ar    1  UNL1        0.0380
     14 C         139.5062  139.1173  158.3354 C.ar    1  UNL1        0.1051
     15 N         138.4463  139.7396  157.4755 N.ar    1  UNL1       -0.1927
     16 C         135.8969  140.8943  156.2204 C.3     1  UNL1        0.2559
     17 O         136.9198  141.7599  156.8944 O.3     1  UNL1       -0.4426
     18 C         138.5934  139.2487  162.6913 C.3     1  UNL1        0.0944
     19 N         139.1813  139.7068  163.9931 N.am    1  UNL1       -0.3005
     20 C         139.1739  138.7928  165.1824 C.2     1  UNL1        0.2474
     21 O         138.5785  137.4206  165.0700 O.2     1  UNL1       -0.2701
     22 H         139.5721  140.6074  164.0668 H       1  UNL1        0.1498
     23 C         139.7619  139.2509  166.4840 C.ar    1  UNL1        0.0727
     24 C         141.2294  139.5459  166.5816 C.ar    1  UNL1        0.0109
     25 C         141.8173  140.0041  167.8833 C.ar    1  UNL1        0.0579
     26 C         140.9379  140.1673  169.0874 C.ar    1  UNL1        0.2251
     27 N         139.4704  139.8723  168.9898 N.ar    1  UNL1       -0.2100
     28 C         138.8824  139.4141  167.6881 C.ar    1  UNL1        0.1065
     29 O         141.5258  140.6254  170.3890 O.3     1  UNL1       -0.4509
     30 C         141.2122  141.9957  170.9127 C.3     1  UNL1        0.3095
     31 C         140.6622  143.0432  169.9907 C.3     1  UNL1        0.4381
     32 F         140.1120  144.0907  169.0687 F       1  UNL1       -0.1663
     33 F         139.2791  142.7656  170.5005 F       1  UNL1       -0.1663
     34 F         142.0453  143.3208  169.4809 F       1  UNL1       -0.1663
@<TRIPOS>BOND
     1    16    17    1
     2    17    10    1
     3    10    11   ar
     4    11    12   ar
     5    12    13   ar
     6    13     2    1
     7     2     3   ar
     8     3     4    1
     9     3     5   ar
    10     5     6   ar
    11     6     7   ar
    12     7     8    1
    13     7     9   ar
    14     9     1    1
    15     1    18    1
    16    18    19    1
    17    19    20   am
    18    20    21    2
    19    20    23    1
    20    23    24   ar
    21    24    25   ar
    22    25    26   ar
    23    26    29    1
    24    29    30    1
    25    30    31    1
    26    31    32    1
    27    31    33    1
    28    31    34    1
    29    26    27   ar
    30    27    28   ar
    31    13    14   ar
    32    14    15   ar
    33    15    10   ar
    34     9     2   ar
    35    28    23   ar
    36    19    22    1
@<TRIPOS>MOLECULE
*****
 34 36 0 0 0
SMALL
GASTEIGER

@<TRIPOS>ATOM
      1 C         140.7676  140.2207  161.4186 C.3     1  UNL1        0.0499
      2 C         139.2535  142.2112  162.1222 C.ar    1  UNL1       -0.0027
      3 C         138.1163  142.7541  162.9360 C.ar    1  UNL1       -0.0219
      4 C         137.7393  144.2018  162.8259 C.3     1  UNL1        0.0310
      5 C         137.3562  141.8493  163.8598 C.ar    1  UNL1       -0.0020
      6 C         137.7332  140.4016  163.9700 C.ar    1  UNL1        0.0290
      7 C         138.8703  139.8588  163.1562 C.ar    1  UNL1        0.1362
      8 F         139.2474  138.4111  163.2663 F       1  UNL1       -0.2045
      9 C         139.6305  140.7636  162.2324 C.ar    1  UNL1        0.0068
     10 C         141.5339  144.9257  159.3507 C.ar    1  UNL1        0.3201
     11 N         140.3311  144.1820  158.8505 N.ar    1  UNL1       -0.1927
     12 C         139.5710  143.2772  159.7743 C.ar    1  UNL1        0.1051
     13 C         140.0136  143.1161  161.1984 C.ar    1  UNL1        0.0380
     14 C         141.2164  143.8597  161.6986 C.ar    1  UNL1        0.1051
     15 N         141.9765  144.7645  160.7747 N.ar    1  UNL1       -0.1927
     16 C         141.9410  145.8829  156.9699 C.3     1  UNL1        0.2559
     17 O         142.2940  145.8305  158.4268 O.3     1  UNL1       -0.4426
     18 C         142.0472  139.8205  162.0912 C.3     1  UNL1        0.0944
     19 N         142.1180  139.7514  163.5880 N.am    1  UNL1       -0.3005
     20 C         142.7036  140.8932  164.3647 C.2     1  UNL1        0.2474
     21 O         143.2184  142.1042  163.6446 O.2     1  UNL1       -0.2701
     22 H         141.7802  138.9566  164.0606 H       1  UNL1        0.1498
     23 C         142.7744  140.8240  165.8614 C.ar    1  UNL1        0.0727
     24 C         142.8522  142.0865  166.6677 C.ar    1  UNL1        0.0109
     25 C         142.9230  142.0173  168.1644 C.ar    1  UNL1        0.0579
     26 C         142.9160  140.6857  168.8548 C.ar    1  UNL1        0.2251
     27 N         142.8381  139.4232  168.0486 N.ar    1  UNL1       -0.2100
     28 C         142.7674  139.4924  166.5518 C.ar    1  UNL1        0.1065
     29 O         142.9867  140.6165  170.3515 O.3     1  UNL1       -0.4509
     30 C         141.7989  141.0122  171.1777 C.3     1  UNL1        0.3095
     31 C         140.4231  140.9697  170.5816 C.3     1  UNL1        0.4381
     32 F         139.0472  140.9273  169.9855 F       1  UNL1       -0.1663
     33 F         140.4222  142.4661  170.4770 F       1  UNL1       -0.1663
     34 F         140.4239  139.4734  170.6862 F       1  UNL1       -0.1663
@<TRIPOS>BOND
     1    16    17    1
     2    17    10    1
     3    10    11   ar
     4    11    12   ar
     5    12    13   ar
     6    13     2    1
     7     2     3   ar
     8     3     4    1
     9     3     5   ar
    10     5     6   ar
    11     6     7   ar
    12     7     8    1
    13     7     9   ar
    14     9     1    1
    15     1    18    1
    16    18    19    1
    17    19    20   am
    18    20    21    2
    19    20    23    1
    20    23    24   ar
    21    24    25   ar
    22    25    26   ar
    23    26    29    1
    24    29    30    1
    25    30    31    1
    26    31    32    1
    27    31    33    1
    28    31    34    1
    29    26    27   ar
    30    27    28   ar
    31    13    14   ar
    32    14    15   ar
    33    15    10   ar
    34     9     2   ar
    35    28    23   ar
    36    19    22    1
@<TRIPOS>MOLECULE
*****
 34 36 0 0 0
SMALL
GASTEIGER

@<TRIPOS>ATOM
      1 C         138.2729  141.8883  164.7564 C.3     1  UNL1        0.0499
      2 C         139.0924  139.4240  164.8294 C.ar    1  UNL1       -0.0027
      3 C         139.2290  138.0806  164.1762 C.ar    1  UNL1       -0.0219
      4 C         139.9120  136.9596  164.9023 C.3     1  UNL1        0.0310
      5 C         138.6827  137.8581  162.7971 C.ar    1  UNL1       -0.0020
      6 C         137.9998  138.9790  162.0711 C.ar    1  UNL1        0.0290
      7 C         137.8632  140.3224  162.7242 C.ar    1  UNL1        0.1362
      8 F         137.1803  141.4434  161.9981 F       1  UNL1       -0.2045
      9 C         138.4095  140.5449  164.1033 C.ar    1  UNL1        0.0068
     10 C         140.7313  140.0914  168.9668 C.ar    1  UNL1        0.3201
     11 N         141.6240  140.2503  167.7719 N.ar    1  UNL1       -0.1927
     12 C         141.0777  140.0278  166.3927 C.ar    1  UNL1        0.1051
     13 C         139.6387  139.6464  166.2085 C.ar    1  UNL1        0.0380
     14 C         138.7461  139.4876  167.4034 C.ar    1  UNL1        0.1051
     15 N         139.2924  139.7101  168.7826 N.ar    1  UNL1       -0.1927
     16 C         140.9885  141.5957  171.0694 C.3     1  UNL1        0.2559
     17 O         141.2776  140.3139  170.3460 O.3     1  UNL1       -0.4426
     18 C         139.3524  142.9164  164.5900 C.3     1  UNL1        0.0944
     19 N         139.9624  143.1517  163.2400 N.am    1  UNL1       -0.3005
     20 C         139.2140  143.9392  162.2057 C.2     1  UNL1        0.2474
     21 O         137.8556  144.4915  162.5214 O.2     1  UNL1       -0.2701
     22 H         140.8540  142.7892  163.0328 H       1  UNL1        0.1498
     23 C         139.8241  144.1744  160.8558 C.ar    1  UNL1        0.0727
     24 C         139.3835  143.3533  159.6802 C.ar    1  UNL1        0.0109
     25 C         139.9936  143.5885  158.3302 C.ar    1  UNL1        0.0579
     26 C         141.0442  144.6448  158.1557 C.ar    1  UNL1        0.2251
     27 N         141.4848  145.4658  159.3312 N.ar    1  UNL1       -0.2100
     28 C         140.8747  145.2306  160.6812 C.ar    1  UNL1        0.1065
     29 O         141.6543  144.8800  156.8057 O.3     1  UNL1       -0.4509
     30 C         140.7786  144.9587  155.5904 C.3     1  UNL1        0.3095
     31 C         139.6965  145.9944  155.5114 C.3     1  UNL1        0.4381
     32 F         138.6143  147.0301  155.4325 F       1  UNL1       -0.1663
     33 F         138.6583  144.9195  155.6403 F       1  UNL1       -0.1663
     34 F         140.7347  147.0693  155.3825 F       1  UNL1       -0.1663
@<TRIPOS>BOND
     1    16    17    1
     2    17    10    1
     3    10    11   ar
     4    11    12   ar
     5    12    13   ar
     6    13     2    1
     7     2     3   ar
     8     3     4    1
     9     3     5   ar
    10     5     6   ar
    11     6     7   ar
    12     7     8    1
    13     7     9   ar
    14     9     1    1
    15     1    18    1
    16    18    19    1
    17    19    20   am
    18    20    21    2
    19    20    23    1
    20    23    24   ar
    21    24    25   ar
    22    25    26   ar
    23    26    29    1
    24    29    30    1
    25    30    31    1
    26    31    32    1
    27    31    33    1
    28    31    34    1
    29    26    27   ar
    30    27    28   ar
    31    13    14   ar
    32    14    15   ar
    33    15    10   ar
    34     9     2   ar
    35    28    23   ar
    36    19    22    1
