@<TRIPOS>MOLECULE
*****
 29 32 0 0 0
SMALL
GASTEIGER

@<TRIPOS>ATOM
      1 C         141.0911  139.6935  163.4818 C.3     1  UNL1        0.0892
      2 C         139.9565  140.6452  163.7205 C.3     1  UNL1        0.1584
      3 O         139.6762  141.1453  165.1066 O.3     1  UNL1       -0.3490
      4 C         140.5304  140.6938  166.2540 C.3     1  UNL1        0.1538
      5 C         141.6649  139.7421  166.0152 C.3     1  UNL1        0.0841
      6 N         142.5192  139.2905  167.1626 N.3     1  UNL1       -0.3199
      7 C         141.9453  139.2420  164.6291 C.3     1  UNL1        0.0368
      8 H         143.2366  138.6508  166.8212 H       1  UNL1        0.1189
      9 H         141.9382  138.8133  167.8518 H       1  UNL1        0.1189
     10 N         142.2344  137.6542  157.8297 N.ar    1  UNL1       -0.1303
     11 C         141.0390  138.4554  158.2530 C.ar    1  UNL1        0.1195
     12 C         141.1660  138.7373  159.7208 C.ar    1  UNL1        0.0312
     13 C         142.4398  138.1103  160.2047 C.ar    1  UNL1        0.0954
     14 N         143.1001  137.4410  159.0359 N.ar    1  UNL1       -0.1519
     15 C         142.5668  138.3923  161.6725 C.3     1  UNL1        0.1205
     16 N         141.3715  139.1934  162.0957 N.3     1  UNL1       -0.2627
     17 C         140.5057  139.4067  160.8895 C.3     1  UNL1        0.1024
     18 C         142.7951  136.6540  155.0575 C.3     1  UNL1        0.2042
     19 S         142.5147  137.1541  156.4436 S.O2    1  UNL1        0.0828
     20 O         143.8374  137.8614  156.4560 O.2     1  UNL1       -0.1508
     21 O         141.1920  136.4468  156.4313 O.2     1  UNL1       -0.1508
     22 C         140.2500  141.1939  167.6401 C.ar    1  UNL1        0.0355
     23 C         140.8508  142.4866  168.1068 C.ar    1  UNL1        0.0300
     24 C         140.5704  142.9867  169.4929 C.ar    1  UNL1        0.1400
     25 F         141.1712  144.2795  169.9596 F       1  UNL1       -0.2042
     26 C         139.6893  142.1941  170.4123 C.ar    1  UNL1        0.0319
     27 C         139.0885  140.9014  169.9456 C.ar    1  UNL1        0.0317
     28 C         139.3689  140.4013  168.5595 C.ar    1  UNL1        0.1386
     29 F         138.7680  139.1085  168.0927 F       1  UNL1       -0.2044
@<TRIPOS>BOND
     1    18    19    1
     2    19    20    2
     3    19    21    2
     4    19    10    1
     5    10    11   ar
     6    11    12   ar
     7    12    13   ar
     8    13    14   ar
     9    13    15    1
    10    15    16    1
    11     1    16    1
    12     1     2    1
    13     2     3    1
    14     3     4    1
    15     4    22    1
    16    22    23   ar
    17    23    24   ar
    18    24    25    1
    19    24    26   ar
    20    26    27   ar
    21    27    28   ar
    22    28    29    1
    23     4     5    1
    24     5     6    1
    25     5     7    1
    26    16    17    1
    27    14    10   ar
    28     7     1    1
    29    17    12    1
    30    28    22   ar
    31     6     8    1
    32     6     9    1
@<TRIPOS>MOLECULE
*****
 29 32 0 0 0
SMALL
GASTEIGER

@<TRIPOS>ATOM
      1 C         142.8948  141.4303  163.7616 C.3     1  UNL1        0.0892
      2 C         142.2517  142.6871  164.2684 C.3     1  UNL1        0.1584
      3 O         141.8322  142.7883  165.7050 O.3     1  UNL1       -0.3490
      4 C         142.0558  141.6327  166.6348 C.3     1  UNL1        0.1538
      5 C         142.6989  140.3759  166.1280 C.3     1  UNL1        0.0841
      6 N         142.9226  139.2203  167.0579 N.3     1  UNL1       -0.3199
      7 C         143.1185  140.2747  164.6915 C.3     1  UNL1        0.0368
      8 H         143.3666  138.4557  166.5493 H       1  UNL1        0.1189
      9 H         142.0268  138.9056  167.4308 H       1  UNL1        0.1189
     10 N         144.6055  141.0176  157.9038 N.ar    1  UNL1       -0.1303
     11 C         144.6079  142.2647  158.7372 C.ar    1  UNL1        0.1195
     12 C         144.1138  141.9074  160.1077 C.ar    1  UNL1        0.0312
     13 C         143.8060  140.4393  160.1212 C.ar    1  UNL1        0.0954
     14 N         144.1099  139.8895  158.7591 N.ar    1  UNL1       -0.1519
     15 C         143.3119  140.0820  161.4917 C.3     1  UNL1        0.1205
     16 N         143.3144  141.3291  162.3251 N.3     1  UNL1       -0.2627
     17 C         143.8099  142.4572  161.4698 C.3     1  UNL1        0.1024
     18 C         145.4446  140.8152  155.0306 C.3     1  UNL1        0.2042
     19 S         145.0251  140.9164  156.4672 S.O2    1  UNL1        0.0828
     20 O         145.1865  142.4066  156.4093 O.2     1  UNL1       -0.1508
     21 O         144.8636  139.4262  156.5250 O.2     1  UNL1       -0.1508
     22 C         141.6363  141.7339  168.0714 C.ar    1  UNL1        0.0355
     23 C         140.2423  141.3539  168.4742 C.ar    1  UNL1        0.0300
     24 C         139.8227  141.4551  169.9107 C.ar    1  UNL1        0.1400
     25 F         138.4287  141.0750  170.3135 F       1  UNL1       -0.2042
     26 C         140.7972  141.9363  170.9445 C.ar    1  UNL1        0.0319
     27 C         142.1912  142.3164  170.5417 C.ar    1  UNL1        0.0317
     28 C         142.6107  142.2152  169.1051 C.ar    1  UNL1        0.1386
     29 F         144.0048  142.5953  168.7024 F       1  UNL1       -0.2044
@<TRIPOS>BOND
     1    18    19    1
     2    19    20    2
     3    19    21    2
     4    19    10    1
     5    10    11   ar
     6    11    12   ar
     7    12    13   ar
     8    13    14   ar
     9    13    15    1
    10    15    16    1
    11     1    16    1
    12     1     2    1
    13     2     3    1
    14     3     4    1
    15     4    22    1
    16    22    23   ar
    17    23    24   ar
    18    24    25    1
    19    24    26   ar
    20    26    27   ar
    21    27    28   ar
    22    28    29    1
    23     4     5    1
    24     5     6    1
    25     5     7    1
    26    16    17    1
    27    14    10   ar
    28     7     1    1
    29    17    12    1
    30    28    22   ar
    31     6     8    1
    32     6     9    1
@<TRIPOS>MOLECULE
*****
 29 32 0 0 0
SMALL
GASTEIGER

@<TRIPOS>ATOM
      1 C         142.0248  139.4303  163.8092 C.3     1  UNL1        0.0892
      2 C         141.1556  140.5839  164.2136 C.3     1  UNL1        0.1584
      3 O         141.1000  141.0138  165.6496 O.3     1  UNL1       -0.3490
      4 C         141.9137  140.2902  166.6812 C.3     1  UNL1        0.1538
      5 C         142.7829  139.1366  166.2767 C.3     1  UNL1        0.0841
      6 N         143.5967  138.4128  167.3083 N.3     1  UNL1       -0.3199
      7 C         142.8385  138.7067  164.8407 C.3     1  UNL1        0.0368
      8 H         144.1234  137.6627  166.8609 H       1  UNL1        0.1189
      9 H         142.9762  138.0179  168.0151 H       1  UNL1        0.1189
     10 N         142.2513  137.6773  157.9537 N.ar    1  UNL1       -0.1303
     11 C         141.2782  138.6539  158.5446 C.ar    1  UNL1        0.1195
     12 C         141.5846  138.7863  160.0070 C.ar    1  UNL1        0.0312
     13 C         142.7471  137.8915  160.3199 C.ar    1  UNL1        0.0954
     14 N         143.1592  137.2061  159.0508 N.ar    1  UNL1       -0.1519
     15 C         143.0535  138.0239  161.7823 C.3     1  UNL1        0.1205
     16 N         142.0804  139.0004  162.3732 N.3     1  UNL1       -0.2627
     17 C         141.1725  139.4717  161.2761 C.3     1  UNL1        0.1024
     18 C         142.3625  136.8175  155.0817 C.3     1  UNL1        0.2042
     19 S         142.3069  137.2474  156.5177 S.O2    1  UNL1        0.0828
     20 O         143.7562  137.6297  156.4593 O.2     1  UNL1       -0.1508
     21 O         140.8576  136.8652  156.5760 O.2     1  UNL1       -0.1508
     22 C         141.8581  140.7201  168.1172 C.ar    1  UNL1        0.0355
     23 C         140.9298  140.0291  169.0715 C.ar    1  UNL1        0.0300
     24 C         140.8743  140.4590  170.5075 C.ar    1  UNL1        0.1400
     25 F         139.9459  139.7681  171.4619 F       1  UNL1       -0.2042
     26 C         141.7470  141.5799  170.9892 C.ar    1  UNL1        0.0319
     27 C         142.6753  142.2708  170.0348 C.ar    1  UNL1        0.0317
     28 C         142.7309  141.8409  168.5988 C.ar    1  UNL1        0.1386
     29 F         143.6592  142.5319  167.6444 F       1  UNL1       -0.2044
@<TRIPOS>BOND
     1    18    19    1
     2    19    20    2
     3    19    21    2
     4    19    10    1
     5    10    11   ar
     6    11    12   ar
     7    12    13   ar
     8    13    14   ar
     9    13    15    1
    10    15    16    1
    11     1    16    1
    12     1     2    1
    13     2     3    1
    14     3     4    1
    15     4    22    1
    16    22    23   ar
    17    23    24   ar
    18    24    25    1
    19    24    26   ar
    20    26    27   ar
    21    27    28   ar
    22    28    29    1
    23     4     5    1
    24     5     6    1
    25     5     7    1
    26    16    17    1
    27    14    10   ar
    28     7     1    1
    29    17    12    1
    30    28    22   ar
    31     6     8    1
    32     6     9    1
@<TRIPOS>MOLECULE
*****
 29 32 0 0 0
SMALL
GASTEIGER

@<TRIPOS>ATOM
      1 C         139.6213  141.9962  162.9910 C.3     1  UNL1        0.0892
      2 C         140.3314  143.2615  163.3716 C.3     1  UNL1        0.1584
      3 O         140.8494  143.4399  164.7680 O.3     1  UNL1       -0.3490
      4 C         140.6573  142.3531  165.7837 C.3     1  UNL1        0.1538
      5 C         139.9473  141.0878  165.4032 C.3     1  UNL1        0.0841
      6 N         139.7553  140.0009  166.4190 N.3     1  UNL1       -0.3199
      7 C         139.4293  140.9094  164.0068 C.3     1  UNL1        0.0368
      8 H         139.2572  139.2201  165.9915 H       1  UNL1        0.1189
      9 H         139.2129  140.3612  167.2041 H       1  UNL1        0.1189
     10 N         137.5091  141.2685  157.2971 N.ar    1  UNL1       -0.1303
     11 C         138.1023  142.5243  157.8637 C.ar    1  UNL1        0.1195
     12 C         138.4846  142.2544  159.2888 C.ar    1  UNL1        0.0312
     13 C         138.1278  140.8318  159.6030 C.ar    1  UNL1        0.0954
     14 N         137.5249  140.2224  158.3721 N.ar    1  UNL1       -0.1519
     15 C         138.5102  140.5619  161.0282 C.3     1  UNL1        0.1205
     16 N         139.1033  141.8177  161.5947 N.3     1  UNL1       -0.2627
     17 C         139.0876  142.8638  160.5198 C.3     1  UNL1        0.1024
     18 C         136.4731  140.9116  154.5044 C.3     1  UNL1        0.2042
     19 S         136.9911  141.0900  155.9008 S.O2    1  UNL1        0.0828
     20 O         135.9048  140.1944  156.4182 O.2     1  UNL1       -0.1508
     21 O         138.0774  141.9857  155.3833 O.2     1  UNL1       -0.1508
     22 C         141.1753  142.5316  167.1801 C.ar    1  UNL1        0.0355
     23 C         140.2779  143.0825  168.2483 C.ar    1  UNL1        0.0300
     24 C         140.7959  143.2609  169.6446 C.ar    1  UNL1        0.1400
     25 F         139.8984  143.8119  170.7128 F       1  UNL1       -0.2042
     26 C         142.2113  142.8885  169.9728 C.ar    1  UNL1        0.0319
     27 C         143.1088  142.3375  168.9047 C.ar    1  UNL1        0.0317
     28 C         142.5908  142.1591  167.5083 C.ar    1  UNL1        0.1386
     29 F         143.4883  141.6081  166.4401 F       1  UNL1       -0.2044
@<TRIPOS>BOND
     1    18    19    1
     2    19    20    2
     3    19    21    2
     4    19    10    1
     5    10    11   ar
     6    11    12   ar
     7    12    13   ar
     8    13    14   ar
     9    13    15    1
    10    15    16    1
    11     1    16    1
    12     1     2    1
    13     2     3    1
    14     3     4    1
    15     4    22    1
    16    22    23   ar
    17    23    24   ar
    18    24    25    1
    19    24    26   ar
    20    26    27   ar
    21    27    28   ar
    22    28    29    1
    23     4     5    1
    24     5     6    1
    25     5     7    1
    26    16    17    1
    27    14    10   ar
    28     7     1    1
    29    17    12    1
    30    28    22   ar
    31     6     8    1
    32     6     9    1
@<TRIPOS>MOLECULE
*****
 29 32 0 0 0
SMALL
GASTEIGER

@<TRIPOS>ATOM
      1 C         142.4634  141.3503  163.0920 C.3     1  UNL1        0.0892
      2 C         143.2684  140.8840  164.2687 C.3     1  UNL1        0.1584
      3 O         142.6921  140.9650  165.6512 O.3     1  UNL1       -0.3490
      4 C         141.3108  141.5124  165.8570 C.3     1  UNL1        0.1538
      5 C         140.5058  141.9787  164.6804 C.3     1  UNL1        0.0841
      6 N         139.1245  142.5261  164.8862 N.3     1  UNL1       -0.3199
      7 C         141.0821  141.8976  163.2979 C.3     1  UNL1        0.0368
      8 H         138.7267  142.7928  163.9856 H       1  UNL1        0.1189
      9 H         139.1700  143.3444  165.4935 H       1  UNL1        0.1189
     10 N         144.8133  141.0196  157.4547 N.ar    1  UNL1       -0.1303
     11 C         144.7332  142.2523  158.3056 C.ar    1  UNL1        0.1195
     12 C         144.0863  141.8768  159.6058 C.ar    1  UNL1        0.0312
     13 C         143.7667  140.4120  159.5585 C.ar    1  UNL1        0.0954
     14 N         144.2160  139.8823  158.2290 N.ar    1  UNL1       -0.1519
     15 C         143.1198  140.0365  160.8587 C.3     1  UNL1        0.1205
     16 N         143.0397  141.2692  161.7095 N.3     1  UNL1       -0.2627
     17 C         143.6370  142.4065  160.9353 C.3     1  UNL1        0.1024
     18 C         145.9659  140.8575  154.6897 C.3     1  UNL1        0.2042
     19 S         145.3896  140.9386  156.0722 S.O2    1  UNL1        0.0828
     20 O         145.5027  142.4337  156.0316 O.2     1  UNL1       -0.1508
     21 O         145.2766  139.4434  156.1127 O.2     1  UNL1       -0.1508
     22 C         140.7345  141.5935  167.2395 C.ar    1  UNL1        0.0355
     23 C         140.8809  142.8533  168.0404 C.ar    1  UNL1        0.0300
     24 C         140.3046  142.9344  169.4229 C.ar    1  UNL1        0.1400
     25 F         140.4510  144.1943  170.2238 F       1  UNL1       -0.2042
     26 C         139.5819  141.7557  170.0045 C.ar    1  UNL1        0.0319
     27 C         139.4355  140.4959  169.2037 C.ar    1  UNL1        0.0317
     28 C         140.0118  140.4148  167.8212 C.ar    1  UNL1        0.1386
     29 F         139.8654  139.1549  167.0203 F       1  UNL1       -0.2044
@<TRIPOS>BOND
     1    18    19    1
     2    19    20    2
     3    19    21    2
     4    19    10    1
     5    10    11   ar
     6    11    12   ar
     7    12    13   ar
     8    13    14   ar
     9    13    15    1
    10    15    16    1
    11     1    16    1
    12     1     2    1
    13     2     3    1
    14     3     4    1
    15     4    22    1
    16    22    23   ar
    17    23    24   ar
    18    24    25    1
    19    24    26   ar
    20    26    27   ar
    21    27    28   ar
    22    28    29    1
    23     4     5    1
    24     5     6    1
    25     5     7    1
    26    16    17    1
    27    14    10   ar
    28     7     1    1
    29    17    12    1
    30    28    22   ar
    31     6     8    1
    32     6     9    1
@<TRIPOS>MOLECULE
*****
 29 32 0 0 0
SMALL
GASTEIGER

@<TRIPOS>ATOM
      1 C         139.6811  141.1208  163.5577 C.3     1  UNL1        0.0892
      2 C         139.3119  142.2013  164.5304 C.3     1  UNL1        0.1584
      3 O         139.8197  142.1463  165.9408 O.3     1  UNL1       -0.3490
      4 C         140.6966  141.0108  166.3784 C.3     1  UNL1        0.1538
      5 C         141.0658  139.9303  165.4057 C.3     1  UNL1        0.0841
      6 N         141.9428  138.7947  165.8433 N.3     1  UNL1       -0.3199
      7 C         140.5580  139.9853  163.9953 C.3     1  UNL1        0.0368
      8 H         142.0902  138.1577  165.0604 H       1  UNL1        0.1189
      9 H         141.4930  138.2934  166.6094 H       1  UNL1        0.1189
     10 N         137.6105  141.3452  157.8067 N.ar    1  UNL1       -0.1303
     11 C         138.2947  142.4596  158.5416 C.ar    1  UNL1        0.1195
     12 C         138.6303  141.9693  159.9189 C.ar    1  UNL1        0.0312
     13 C         138.1535  140.5518  160.0352 C.ar    1  UNL1        0.0954
     14 N         137.5233  140.1662  158.7298 N.ar    1  UNL1       -0.1519
     15 C         138.4891  140.0615  161.4125 C.3     1  UNL1        0.1205
     16 N         139.1733  141.1759  162.1473 N.3     1  UNL1       -0.2627
     17 C         139.2606  142.3549  161.2243 C.3     1  UNL1        0.1024
     18 C         136.5950  141.4553  154.9860 C.3     1  UNL1        0.2042
     19 S         137.1027  141.4003  156.3963 S.O2    1  UNL1        0.0828
     20 O         138.2271  142.3221  156.0275 O.2     1  UNL1       -0.1508
     21 O         135.9784  140.4784  156.7652 O.2     1  UNL1       -0.1508
     22 C         141.2044  140.9557  167.7888 C.ar    1  UNL1        0.0355
     23 C         142.5203  141.5857  168.1373 C.ar    1  UNL1        0.0300
     24 C         143.0281  141.5307  169.5476 C.ar    1  UNL1        0.1400
     25 F         144.3441  142.1607  169.8961 F       1  UNL1       -0.2042
     26 C         142.2200  140.8457  170.6095 C.ar    1  UNL1        0.0319
     27 C         140.9041  140.2157  170.2610 C.ar    1  UNL1        0.0317
     28 C         140.3963  140.2707  168.8507 C.ar    1  UNL1        0.1386
     29 F         139.0803  139.6407  168.5022 F       1  UNL1       -0.2044
@<TRIPOS>BOND
     1    18    19    1
     2    19    20    2
     3    19    21    2
     4    19    10    1
     5    10    11   ar
     6    11    12   ar
     7    12    13   ar
     8    13    14   ar
     9    13    15    1
    10    15    16    1
    11     1    16    1
    12     1     2    1
    13     2     3    1
    14     3     4    1
    15     4    22    1
    16    22    23   ar
    17    23    24   ar
    18    24    25    1
    19    24    26   ar
    20    26    27   ar
    21    27    28   ar
    22    28    29    1
    23     4     5    1
    24     5     6    1
    25     5     7    1
    26    16    17    1
    27    14    10   ar
    28     7     1    1
    29    17    12    1
    30    28    22   ar
    31     6     8    1
    32     6     9    1
@<TRIPOS>MOLECULE
*****
 29 32 0 0 0
SMALL
GASTEIGER

@<TRIPOS>ATOM
      1 C         141.6334  142.9952  163.9659 C.3     1  UNL1        0.0892
      2 C         142.8714  143.2303  164.7795 C.3     1  UNL1        0.1584
      3 O         142.9752  142.6691  166.1666 O.3     1  UNL1       -0.3490
      4 C         141.8409  141.8726  166.7402 C.3     1  UNL1        0.1538
      5 C         140.6029  141.6374  165.9267 C.3     1  UNL1        0.0841
      6 N         139.4685  140.8410  166.5003 N.3     1  UNL1       -0.3199
      7 C         140.4991  142.1987  164.5395 C.3     1  UNL1        0.0368
      8 H         138.7147  140.7811  165.8157 H       1  UNL1        0.1189
      9 H         139.1251  141.2980  167.3450 H       1  UNL1        0.1189
     10 N         141.2102  145.2838  158.3095 N.ar    1  UNL1       -0.1303
     11 C         140.2206  145.4854  159.4185 C.ar    1  UNL1        0.1195
     12 C         140.7206  144.7486  160.6257 C.ar    1  UNL1        0.0312
     13 C         142.0193  144.0916  160.2627 C.ar    1  UNL1        0.0954
     14 N         142.3219  144.4224  158.8313 N.ar    1  UNL1       -0.1519
     15 C         142.5193  143.3548  161.4698 C.3     1  UNL1        0.1205
     16 N         141.5296  143.5564  162.5787 N.3     1  UNL1       -0.2627
     17 C         140.4179  144.4178  162.0571 C.3     1  UNL1        0.1024
     18 C         141.0027  146.4064  155.5352 C.3     1  UNL1        0.2042
     19 S         141.1065  145.8451  156.9224 S.O2    1  UNL1        0.0828
     20 O         142.4005  145.1805  156.5567 O.2     1  UNL1       -0.1508
     21 O         139.8124  146.5097  157.2881 O.2     1  UNL1       -0.1508
     22 C         141.9447  141.3114  168.1274 C.ar    1  UNL1        0.0355
     23 C         142.4016  139.8974  168.3321 C.ar    1  UNL1        0.0300
     24 C         142.5054  139.3362  169.7193 C.ar    1  UNL1        0.1400
     25 F         142.9624  137.9222  169.9240 F       1  UNL1       -0.2042
     26 C         142.1522  140.1888  170.9017 C.ar    1  UNL1        0.0319
     27 C         141.6953  141.6027  170.6970 C.ar    1  UNL1        0.0317
     28 C         141.5915  142.1640  169.3098 C.ar    1  UNL1        0.1386
     29 F         141.1345  143.5780  169.1051 F       1  UNL1       -0.2044
@<TRIPOS>BOND
     1    18    19    1
     2    19    20    2
     3    19    21    2
     4    19    10    1
     5    10    11   ar
     6    11    12   ar
     7    12    13   ar
     8    13    14   ar
     9    13    15    1
    10    15    16    1
    11     1    16    1
    12     1     2    1
    13     2     3    1
    14     3     4    1
    15     4    22    1
    16    22    23   ar
    17    23    24   ar
    18    24    25    1
    19    24    26   ar
    20    26    27   ar
    21    27    28   ar
    22    28    29    1
    23     4     5    1
    24     5     6    1
    25     5     7    1
    26    16    17    1
    27    14    10   ar
    28     7     1    1
    29    17    12    1
    30    28    22   ar
    31     6     8    1
    32     6     9    1
@<TRIPOS>MOLECULE
*****
 29 32 0 0 0
SMALL
GASTEIGER

@<TRIPOS>ATOM
      1 C         139.8065  141.2340  164.0208 C.3     1  UNL1        0.0892
      2 C         141.0770  141.9120  164.4404 C.3     1  UNL1        0.1584
      3 O         141.5613  141.7885  165.8547 O.3     1  UNL1       -0.3490
      4 C         140.7752  140.9869  166.8493 C.3     1  UNL1        0.1538
      5 C         139.5047  140.3088  166.4297 C.3     1  UNL1        0.0841
      6 N         138.7185  139.5072  167.4244 N.3     1  UNL1       -0.3199
      7 C         139.0203  140.4324  165.0154 C.3     1  UNL1        0.0368
      8 H         137.8907  139.1203  166.9710 H       1  UNL1        0.1189
      9 H         138.4330  140.1092  168.1967 H       1  UNL1        0.1189
     10 N         137.8315  141.7379  158.2539 N.ar    1  UNL1       -0.1303
     11 C         138.1047  140.4561  158.9835 C.ar    1  UNL1        0.1195
     12 C         138.5697  140.8004  160.3674 C.ar    1  UNL1        0.0312
     13 C         138.5840  142.2951  160.4931 C.ar    1  UNL1        0.0954
     14 N         138.1277  142.8744  159.1869 N.ar    1  UNL1       -0.1519
     15 C         139.0490  142.6394  161.8770 C.3     1  UNL1        0.1205
     16 N         139.3222  141.3576  162.6065 N.3     1  UNL1       -0.2627
     17 C         139.0260  140.2210  161.6736 C.3     1  UNL1        0.1024
     18 C         136.8629  141.9851  155.4253 C.3     1  UNL1        0.2042
     19 S         137.3472  141.8615  156.8396 S.O2    1  UNL1        0.0828
     20 O         138.1822  143.0948  156.6614 O.2     1  UNL1       -0.1508
     21 O         136.5122  140.6282  157.0178 O.2     1  UNL1       -0.1508
     22 C         141.2595  140.8633  168.2636 C.ar    1  UNL1        0.0355
     23 C         141.9543  139.6118  168.7118 C.ar    1  UNL1        0.0300
     24 C         142.4386  139.4882  170.1260 C.ar    1  UNL1        0.1400
     25 F         143.1335  138.2366  170.5742 F       1  UNL1       -0.2042
     26 C         142.2282  140.6161  171.0921 C.ar    1  UNL1        0.0319
     27 C         141.5334  141.8677  170.6440 C.ar    1  UNL1        0.0317
     28 C         141.0490  141.9912  169.2297 C.ar    1  UNL1        0.1386
     29 F         140.3542  143.2428  168.7815 F       1  UNL1       -0.2044
@<TRIPOS>BOND
     1    18    19    1
     2    19    20    2
     3    19    21    2
     4    19    10    1
     5    10    11   ar
     6    11    12   ar
     7    12    13   ar
     8    13    14   ar
     9    13    15    1
    10    15    16    1
    11     1    16    1
    12     1     2    1
    13     2     3    1
    14     3     4    1
    15     4    22    1
    16    22    23   ar
    17    23    24   ar
    18    24    25    1
    19    24    26   ar
    20    26    27   ar
    21    27    28   ar
    22    28    29    1
    23     4     5    1
    24     5     6    1
    25     5     7    1
    26    16    17    1
    27    14    10   ar
    28     7     1    1
    29    17    12    1
    30    28    22   ar
    31     6     8    1
    32     6     9    1
@<TRIPOS>MOLECULE
*****
 29 32 0 0 0
SMALL
GASTEIGER

@<TRIPOS>ATOM
      1 C         141.1085  139.6553  163.4408 C.3     1  UNL1        0.0892
      2 C         141.7905  138.9926  164.6008 C.3     1  UNL1        0.1584
      3 O         141.5435  139.4839  165.9964 O.3     1  UNL1       -0.3490
      4 C         140.6146  140.6377  166.2320 C.3     1  UNL1        0.1538
      5 C         139.9326  141.3004  165.0720 C.3     1  UNL1        0.0841
      6 N         139.0035  142.4543  165.3075 N.3     1  UNL1       -0.3199
      7 C         140.1795  140.8091  163.6764 C.3     1  UNL1        0.0368
      8 H         138.6319  142.7793  164.4150 H       1  UNL1        0.1189
      9 H         139.5123  143.2134  165.7606 H       1  UNL1        0.1189
     10 N         142.1154  137.6522  157.7500 N.ar    1  UNL1       -0.1303
     11 C         142.9422  137.3268  158.9585 C.ar    1  UNL1        0.1195
     12 C         142.3361  138.0285  160.1376 C.ar    1  UNL1        0.0312
     13 C         141.1347  138.7877  159.6578 C.ar    1  UNL1        0.0954
     14 N         140.9983  138.5551  158.1822 N.ar    1  UNL1       -0.1519
     15 C         140.5286  139.4895  160.8368 C.3     1  UNL1        0.1205
     16 N         141.3554  139.1640  162.0452 N.3     1  UNL1       -0.2627
     17 C         142.4725  138.2612  161.6131 C.3     1  UNL1        0.1024
     18 C         142.6093  136.6697  154.9588 C.3     1  UNL1        0.2042
     19 S         142.3624  137.1610  156.3544 S.O2    1  UNL1        0.0828
     20 O         143.7823  137.6373  156.4380 O.2     1  UNL1       -0.1508
     21 O         140.9425  136.6846  156.2708 O.2     1  UNL1       -0.1508
     22 C         140.3676  141.1290  167.6276 C.ar    1  UNL1        0.0355
     23 C         141.0663  142.3600  168.1241 C.ar    1  UNL1        0.0300
     24 C         140.8193  142.8512  169.5197 C.ar    1  UNL1        0.1400
     25 F         141.5180  144.0823  170.0161 F       1  UNL1       -0.2042
     26 C         139.8737  142.1114  170.4188 C.ar    1  UNL1        0.0319
     27 C         139.1751  140.8805  169.9224 C.ar    1  UNL1        0.0317
     28 C         139.4220  140.3892  168.5268 C.ar    1  UNL1        0.1386
     29 F         138.7233  139.1582  168.0304 F       1  UNL1       -0.2044
@<TRIPOS>BOND
     1    18    19    1
     2    19    20    2
     3    19    21    2
     4    19    10    1
     5    10    11   ar
     6    11    12   ar
     7    12    13   ar
     8    13    14   ar
     9    13    15    1
    10    15    16    1
    11     1    16    1
    12     1     2    1
    13     2     3    1
    14     3     4    1
    15     4    22    1
    16    22    23   ar
    17    23    24   ar
    18    24    25    1
    19    24    26   ar
    20    26    27   ar
    21    27    28   ar
    22    28    29    1
    23     4     5    1
    24     5     6    1
    25     5     7    1
    26    16    17    1
    27    14    10   ar
    28     7     1    1
    29    17    12    1
    30    28    22   ar
    31     6     8    1
    32     6     9    1
