@<TRIPOS>MOLECULE
*****
 33 37 0 0 0
SMALL
GASTEIGER

@<TRIPOS>ATOM
      1 C         141.2035  139.0059  161.3078 C.ar    1  UNL1        0.0790
      2 C         140.5412  138.5165  160.0540 C.ar    1  UNL1        0.0365
      3 C         141.5159  138.6708  158.9243 C.ar    1  UNL1        0.0962
      4 N         142.7806  139.2555  159.4799 N.ar    1  UNL1       -0.1723
      5 N         142.5875  139.4626  160.9530 N.ar    1  UNL1       -0.2531
      6 C         139.3616  139.0892  165.4127 C.ar    1  UNL1       -0.0225
      7 C         139.6378  140.3733  164.6884 C.ar    1  UNL1       -0.0042
      8 C         140.2517  140.3455  163.3201 C.ar    1  UNL1        0.0012
      9 C         140.5895  139.0336  162.6761 C.ar    1  UNL1        0.0173
     10 C         140.3134  137.7495  163.4004 C.ar    1  UNL1        0.0012
     11 C         139.6994  137.7773  164.7688 C.ar    1  UNL1       -0.0042
     12 C         139.3840  139.9257  167.8723 C.3     1  UNL1        0.0047
     13 C         138.7477  139.1170  166.7811 C.3     1  UNL1        0.0224
     14 C         137.4974  138.3360  167.0581 C.3     1  UNL1        0.0047
     15 C         143.6006  140.0272  161.9042 C.3     1  UNL1        0.1052
     16 C         144.1983  141.3790  161.6479 C.3     1  UNL1        0.0244
     17 C         145.2114  141.9437  162.5991 C.3     1  UNL1        0.0020
     18 C         145.6268  141.1566  163.8066 C.3     1  UNL1        0.0001
     19 C         145.0291  139.8049  164.0628 C.3     1  UNL1        0.0020
     20 C         144.0160  139.2403  163.1116 C.3     1  UNL1        0.0244
     21 C         141.2692  138.3047  157.4908 C.3     1  UNL1        0.1206
     22 N         141.7576  136.9904  156.9577 N.3     1  UNL1       -0.2646
     23 C         141.0420  136.3317  155.8157 C.3     1  UNL1        0.0941
     24 C         141.5304  135.0174  155.2826 C.3     1  UNL1        0.1095
     25 N         142.7343  134.3619  155.8915 N.pl3   1  UNL1       -0.2904
     26 C         143.4499  135.0205  157.0334 C.3     1  UNL1        0.1095
     27 C         142.9615  136.3348  157.5666 C.3     1  UNL1        0.0941
     28 C         143.2227  133.0475  155.3584 C.ar    1  UNL1        0.1318
     29 C         144.2291  132.2508  156.1346 C.ar    1  UNL1        0.0343
     30 C         144.7175  130.9365  155.6016 C.ar    1  UNL1        0.0045
     31 C         144.1996  130.4190  154.2924 C.ar    1  UNL1        0.0208
     32 C         143.1932  131.2158  153.5163 C.ar    1  UNL1        0.1003
     33 N         142.7048  132.5300  154.0493 N.ar    1  UNL1       -0.2292
@<TRIPOS>BOND
     1    12    13    1
     2    13    14    1
     3    13     6    1
     4     6     7   ar
     5     7     8   ar
     6     8     9   ar
     7     9     1    1
     8     1     2   ar
     9     2     3   ar
    10     3    21    1
    11    21    22    1
    12    22    23    1
    13    23    24    1
    14    24    25    1
    15    25    28    1
    16    28    29   ar
    17    29    30   ar
    18    30    31   ar
    19    31    32   ar
    20    32    33   ar
    21    25    26    1
    22    26    27    1
    23     3     4   ar
    24     4     5   ar
    25     5    15    1
    26    15    16    1
    27    16    17    1
    28    17    18    1
    29    18    19    1
    30    19    20    1
    31     9    10   ar
    32    10    11   ar
    33    11     6   ar
    34     5     1   ar
    35    20    15    1
    36    27    22    1
    37    33    28   ar
@<TRIPOS>MOLECULE
*****
 33 37 0 0 0
SMALL
GASTEIGER

@<TRIPOS>ATOM
      1 C         141.1787  138.9870  161.3073 C.ar    1  UNL1        0.0790
      2 C         140.5138  138.5247  160.0447 C.ar    1  UNL1        0.0365
      3 C         141.4955  138.6778  158.9209 C.ar    1  UNL1        0.0962
      4 N         142.7671  139.2348  159.4889 N.ar    1  UNL1       -0.1723
      5 N         142.5713  139.4259  160.9638 N.ar    1  UNL1       -0.2531
      6 C         139.3216  139.0470  165.4057 C.ar    1  UNL1       -0.0225
      7 C         139.6423  137.7383  164.7468 C.ar    1  UNL1       -0.0042
      8 C         140.2614  137.7183  163.3806 C.ar    1  UNL1        0.0012
      9 C         140.5597  139.0070  162.6734 C.ar    1  UNL1        0.0173
     10 C         140.2389  140.3158  163.3324 C.ar    1  UNL1        0.0012
     11 C         139.6199  140.3358  164.6986 C.ar    1  UNL1       -0.0042
     12 C         137.4791  138.2461  167.0530 C.3     1  UNL1        0.0047
     13 C         138.7026  139.0670  166.7719 C.3     1  UNL1        0.0224
     14 C         139.3070  139.9080  167.8570 C.3     1  UNL1        0.0047
     15 C         143.5895  139.9618  161.9262 C.3     1  UNL1        0.1052
     16 C         143.9812  139.1562  163.1294 C.3     1  UNL1        0.0244
     17 C         144.9994  139.6921  164.0918 C.3     1  UNL1        0.0020
     18 C         145.6257  141.0336  163.8511 C.3     1  UNL1        0.0001
     19 C         145.2340  141.8392  162.6479 C.3     1  UNL1        0.0020
     20 C         144.2159  141.3033  161.6855 C.3     1  UNL1        0.0244
     21 C         141.2488  138.3342  157.4818 C.3     1  UNL1        0.1206
     22 N         141.7235  137.0218  156.9321 N.3     1  UNL1       -0.2646
     23 C         142.9494  136.3701  157.5000 C.3     1  UNL1        0.0941
     24 C         143.4241  135.0577  156.9503 C.3     1  UNL1        0.1095
     25 N         142.6729  134.3969  155.8326 N.pl3   1  UNL1       -0.2904
     26 C         141.4471  135.0485  155.2647 C.3     1  UNL1        0.1095
     27 C         140.9723  136.3610  155.8144 C.3     1  UNL1        0.0941
     28 C         143.1476  133.0844  155.2829 C.ar    1  UNL1        0.1318
     29 C         142.6408  132.5994  153.9570 C.ar    1  UNL1        0.0343
     30 C         143.1155  131.2870  153.4072 C.ar    1  UNL1        0.0045
     31 C         144.0968  130.4596  154.1832 C.ar    1  UNL1        0.0208
     32 C         144.6036  130.9447  155.5091 C.ar    1  UNL1        0.1003
     33 N         144.1290  132.2571  156.0589 N.ar    1  UNL1       -0.2292
@<TRIPOS>BOND
     1    12    13    1
     2    13    14    1
     3    13     6    1
     4     6     7   ar
     5     7     8   ar
     6     8     9   ar
     7     9     1    1
     8     1     2   ar
     9     2     3   ar
    10     3    21    1
    11    21    22    1
    12    22    23    1
    13    23    24    1
    14    24    25    1
    15    25    28    1
    16    28    29   ar
    17    29    30   ar
    18    30    31   ar
    19    31    32   ar
    20    32    33   ar
    21    25    26    1
    22    26    27    1
    23     3     4   ar
    24     4     5   ar
    25     5    15    1
    26    15    16    1
    27    16    17    1
    28    17    18    1
    29    18    19    1
    30    19    20    1
    31     9    10   ar
    32    10    11   ar
    33    11     6   ar
    34     5     1   ar
    35    20    15    1
    36    27    22    1
    37    33    28   ar
@<TRIPOS>MOLECULE
*****
 33 37 0 0 0
SMALL
GASTEIGER

@<TRIPOS>ATOM
      1 C         142.5736  141.5814  163.7673 C.ar    1  UNL1        0.0790
      2 C         143.6332  141.1730  162.7873 C.ar    1  UNL1        0.0365
      3 C         143.2402  141.6928  161.4362 C.ar    1  UNL1        0.0962
      4 N         141.9377  142.4225  161.5812 N.ar    1  UNL1       -0.1723
      5 N         141.5257  142.3536  163.0219 N.ar    1  UNL1       -0.2531
      6 C         142.5436  140.6528  168.1703 C.ar    1  UNL1       -0.0225
      7 C         142.9748  142.0077  167.6925 C.ar    1  UNL1       -0.0042
      8 C         142.9848  142.3172  166.2248 C.ar    1  UNL1        0.0012
      9 C         142.5636  141.2719  165.2350 C.ar    1  UNL1        0.0173
     10 C         142.1324  139.9170  165.7128 C.ar    1  UNL1        0.0012
     11 C         142.1224  139.6075  167.1805 C.ar    1  UNL1       -0.0042
     12 C         142.4770  141.4587  170.6394 C.3     1  UNL1        0.0047
     13 C         142.5336  140.3433  169.6380 C.3     1  UNL1        0.0224
     14 C         142.5801  138.9185  170.1044 C.3     1  UNL1        0.0047
     15 C         140.2839  142.9520  163.6133 C.3     1  UNL1        0.1052
     16 C         138.9640  142.2593  163.4448 C.3     1  UNL1        0.0244
     17 C         137.7221  142.8577  164.0363 C.3     1  UNL1        0.0020
     18 C         137.8001  144.1486  164.7961 C.3     1  UNL1        0.0001
     19 C         139.1199  144.8412  164.9646 C.3     1  UNL1        0.0020
     20 C         140.3617  144.2428  164.3732 C.3     1  UNL1        0.0244
     21 C         144.0139  141.5143  160.1636 C.3     1  UNL1        0.1206
     22 N         143.6732  140.3907  159.2301 N.3     1  UNL1       -0.2646
     23 C         143.0955  139.1160  159.7701 C.3     1  UNL1        0.0941
     24 C         142.7548  137.9924  158.8366 C.3     1  UNL1        0.1095
     25 N         142.9918  138.1435  157.3632 N.pl3   1  UNL1       -0.2904
     26 C         143.5695  139.4180  156.8232 C.3     1  UNL1        0.1095
     27 C         143.9102  140.5417  157.7567 C.3     1  UNL1        0.0941
     28 C         142.6511  137.0198  156.4296 C.ar    1  UNL1        0.1318
     29 C         143.7440  136.1861  155.8292 C.ar    1  UNL1        0.0343
     30 C         143.4033  135.0625  154.8957 C.ar    1  UNL1        0.0045
     31 C         141.9699  134.7726  154.5625 C.ar    1  UNL1        0.0208
     32 C         140.8770  135.6064  155.1630 C.ar    1  UNL1        0.1003
     33 N         141.2177  136.7299  156.0965 N.ar    1  UNL1       -0.2292
@<TRIPOS>BOND
     1    12    13    1
     2    13    14    1
     3    13     6    1
     4     6     7   ar
     5     7     8   ar
     6     8     9   ar
     7     9     1    1
     8     1     2   ar
     9     2     3   ar
    10     3    21    1
    11    21    22    1
    12    22    23    1
    13    23    24    1
    14    24    25    1
    15    25    28    1
    16    28    29   ar
    17    29    30   ar
    18    30    31   ar
    19    31    32   ar
    20    32    33   ar
    21    25    26    1
    22    26    27    1
    23     3     4   ar
    24     4     5   ar
    25     5    15    1
    26    15    16    1
    27    16    17    1
    28    17    18    1
    29    18    19    1
    30    19    20    1
    31     9    10   ar
    32    10    11   ar
    33    11     6   ar
    34     5     1   ar
    35    20    15    1
    36    27    22    1
    37    33    28   ar
@<TRIPOS>MOLECULE
*****
 33 37 0 0 0
SMALL
GASTEIGER

@<TRIPOS>ATOM
      1 C         141.2028  142.4902  164.3380 C.ar    1  UNL1        0.0790
      2 C         141.5702  143.5838  163.3793 C.ar    1  UNL1        0.0365
      3 C         141.1408  143.1601  162.0060 C.ar    1  UNL1        0.0962
      4 N         140.5081  141.8045  162.1158 N.ar    1  UNL1       -0.1723
      5 N         140.5464  141.3905  163.5571 N.ar    1  UNL1       -0.2531
      6 C         141.9404  142.5056  168.7771 C.ar    1  UNL1       -0.0225
      7 C         140.5761  142.8261  168.2424 C.ar    1  UNL1       -0.0042
      8 C         140.3302  142.8210  166.7627 C.ar    1  UNL1        0.0012
      9 C         141.4487  142.4953  165.8177 C.ar    1  UNL1        0.0173
     10 C         142.8129  142.1748  166.3524 C.ar    1  UNL1        0.0012
     11 C         143.0588  142.1799  167.8321 C.ar    1  UNL1       -0.0042
     12 C         141.4195  141.5789  171.1477 C.3     1  UNL1        0.0047
     13 C         142.1863  142.5107  170.2568 C.3     1  UNL1        0.0224
     14 C         143.1989  143.4476  170.8456 C.3     1  UNL1        0.0047
     15 C         140.0206  140.1029  164.1187 C.3     1  UNL1        0.1052
     16 C         140.7518  138.8185  163.8619 C.3     1  UNL1        0.0244
     17 C         140.2260  137.5309  164.4236 C.3     1  UNL1        0.0020
     18 C         138.9690  137.5275  165.2421 C.3     1  UNL1        0.0001
     19 C         138.2378  138.8118  165.4989 C.3     1  UNL1        0.0020
     20 C         138.7636  140.0994  164.9372 C.3     1  UNL1        0.0244
     21 C         141.3138  143.9527  160.7443 C.3     1  UNL1        0.1206
     22 N         142.3470  143.5431  159.7370 N.3     1  UNL1       -0.2646
     23 C         143.6207  142.8936  160.1907 C.3     1  UNL1        0.0941
     24 C         144.6539  142.4840  159.1834 C.3     1  UNL1        0.1095
     25 N         144.4134  142.7239  157.7224 N.pl3   1  UNL1       -0.2904
     26 C         143.1398  143.3733  157.2686 C.3     1  UNL1        0.1095
     27 C         142.1065  143.7830  158.2760 C.3     1  UNL1        0.0941
     28 C         145.4466  142.3142  156.7150 C.ar    1  UNL1        0.1318
     29 C         145.0280  141.6321  155.4463 C.ar    1  UNL1        0.0343
     30 C         146.0612  141.2225  154.4390 C.ar    1  UNL1        0.0045
     31 C         147.5128  141.4949  154.7002 C.ar    1  UNL1        0.0208
     32 C         147.9314  142.1770  155.9689 C.ar    1  UNL1        0.1003
     33 N         146.8983  142.5867  156.9762 N.ar    1  UNL1       -0.2292
@<TRIPOS>BOND
     1    12    13    1
     2    13    14    1
     3    13     6    1
     4     6     7   ar
     5     7     8   ar
     6     8     9   ar
     7     9     1    1
     8     1     2   ar
     9     2     3   ar
    10     3    21    1
    11    21    22    1
    12    22    23    1
    13    23    24    1
    14    24    25    1
    15    25    28    1
    16    28    29   ar
    17    29    30   ar
    18    30    31   ar
    19    31    32   ar
    20    32    33   ar
    21    25    26    1
    22    26    27    1
    23     3     4   ar
    24     4     5   ar
    25     5    15    1
    26    15    16    1
    27    16    17    1
    28    17    18    1
    29    18    19    1
    30    19    20    1
    31     9    10   ar
    32    10    11   ar
    33    11     6   ar
    34     5     1   ar
    35    20    15    1
    36    27    22    1
    37    33    28   ar
@<TRIPOS>MOLECULE
*****
 33 37 0 0 0
SMALL
GASTEIGER

@<TRIPOS>ATOM
      1 C         142.7259  139.4868  160.3605 C.ar    1  UNL1        0.0790
      2 C         143.2749  139.3564  158.9707 C.ar    1  UNL1        0.0365
      3 C         142.6950  138.1162  158.3577 C.ar    1  UNL1        0.0962
      4 N         141.7877  137.4801  159.3687 N.ar    1  UNL1       -0.1723
      5 N         141.8068  138.3272  160.6065 N.ar    1  UNL1       -0.2531
      6 C         143.6705  142.7788  163.2795 C.ar    1  UNL1       -0.0225
      7 C         142.4178  142.8424  162.4569 C.ar    1  UNL1       -0.0042
      8 C         142.1029  141.7451  161.4839 C.ar    1  UNL1        0.0012
      9 C         143.0408  140.5841  161.3335 C.ar    1  UNL1        0.0173
     10 C         144.2935  140.5206  162.1561 C.ar    1  UNL1        0.0012
     11 C         144.6083  141.6179  163.1290 C.ar    1  UNL1       -0.0042
     12 C         143.5807  145.2879  163.9475 C.3     1  UNL1        0.0047
     13 C         143.9854  143.8762  164.2525 C.3     1  UNL1        0.0224
     14 C         144.7049  143.5617  165.5305 C.3     1  UNL1        0.0047
     15 C         141.0411  138.0613  161.8687 C.3     1  UNL1        0.1052
     16 C         141.7680  137.6463  163.1135 C.3     1  UNL1        0.0244
     17 C         141.0023  137.3804  164.3757 C.3     1  UNL1        0.0020
     18 C         139.5098  137.5296  164.3931 C.3     1  UNL1        0.0001
     19 C         138.7830  137.9446  163.1483 C.3     1  UNL1        0.0020
     20 C         139.5487  138.2105  161.8861 C.3     1  UNL1        0.0244
     21 C         142.9737  137.6023  156.9763 C.3     1  UNL1        0.1206
     22 N         142.6844  136.1703  156.6363 N.3     1  UNL1       -0.2646
     23 C         143.4215  135.0690  157.3390 C.3     1  UNL1        0.0941
     24 C         143.1323  133.6369  156.9991 C.3     1  UNL1        0.1095
     25 N         142.1059  133.3062  155.9564 N.pl3   1  UNL1       -0.2904
     26 C         141.3688  134.4074  155.2536 C.3     1  UNL1        0.1095
     27 C         141.6581  135.8396  155.5936 C.3     1  UNL1        0.0941
     28 C         141.8166  131.8741  155.6163 C.ar    1  UNL1        0.1318
     29 C         140.6937  131.5376  154.6804 C.ar    1  UNL1        0.0343
     30 C         140.4044  130.1056  154.3404 C.ar    1  UNL1        0.0045
     31 C         141.2379  129.0101  154.9362 C.ar    1  UNL1        0.0208
     32 C         142.3608  129.3467  155.8721 C.ar    1  UNL1        0.1003
     33 N         142.6501  130.7787  156.2121 N.ar    1  UNL1       -0.2292
@<TRIPOS>BOND
     1    12    13    1
     2    13    14    1
     3    13     6    1
     4     6     7   ar
     5     7     8   ar
     6     8     9   ar
     7     9     1    1
     8     1     2   ar
     9     2     3   ar
    10     3    21    1
    11    21    22    1
    12    22    23    1
    13    23    24    1
    14    24    25    1
    15    25    28    1
    16    28    29   ar
    17    29    30   ar
    18    30    31   ar
    19    31    32   ar
    20    32    33   ar
    21    25    26    1
    22    26    27    1
    23     3     4   ar
    24     4     5   ar
    25     5    15    1
    26    15    16    1
    27    16    17    1
    28    17    18    1
    29    18    19    1
    30    19    20    1
    31     9    10   ar
    32    10    11   ar
    33    11     6   ar
    34     5     1   ar
    35    20    15    1
    36    27    22    1
    37    33    28   ar
@<TRIPOS>MOLECULE
*****
 33 37 0 0 0
SMALL
GASTEIGER

@<TRIPOS>ATOM
      1 C         142.5069  139.7442  163.8848 C.ar    1  UNL1        0.0790
      2 C         142.4639  138.4951  163.0554 C.ar    1  UNL1        0.0365
      3 C         143.0647  138.8066  161.7167 C.ar    1  UNL1        0.0962
      4 N         143.4789  140.2483  161.7188 N.ar    1  UNL1       -0.1723
      5 N         143.1342  140.8277  163.0587 N.ar    1  UNL1       -0.2531
      6 C         141.0156  140.1667  168.1095 C.ar    1  UNL1       -0.0225
      7 C         140.1656  140.6310  166.9641 C.ar    1  UNL1       -0.0042
      8 C         140.6627  140.4901  165.5559 C.ar    1  UNL1        0.0012
      9 C         142.0098  139.8850  165.2930 C.ar    1  UNL1        0.0173
     10 C         142.8598  139.4208  166.4384 C.ar    1  UNL1        0.0012
     11 C         142.3627  139.5616  167.8466 C.ar    1  UNL1       -0.0042
     12 C         139.0444  140.3418  169.7928 C.3     1  UNL1        0.0047
     13 C         140.5185  140.3076  169.5177 C.3     1  UNL1        0.0224
     14 C         141.4956  140.4142  170.6508 C.3     1  UNL1        0.0047
     15 C         143.3746  142.2423  163.4958 C.3     1  UNL1        0.1052
     16 C         144.2515  142.5227  164.6801 C.3     1  UNL1        0.0244
     17 C         144.4919  143.9373  165.1172 C.3     1  UNL1        0.0020
     18 C         143.8554  145.0716  164.3700 C.3     1  UNL1        0.0001
     19 C         142.9785  144.7912  163.1858 C.3     1  UNL1        0.0020
     20 C         142.7381  143.3766  162.7487 C.3     1  UNL1        0.0244
     21 C         143.2233  137.8453  160.5763 C.3     1  UNL1        0.1206
     22 N         142.2687  137.8891  159.4201 N.3     1  UNL1       -0.2646
     23 C         142.6603  137.2917  158.1011 C.3     1  UNL1        0.0941
     24 C         141.7056  137.3356  156.9449 C.3     1  UNL1        0.1095
     25 N         140.3594  137.9768  157.1078 N.pl3   1  UNL1       -0.2904
     26 C         139.9678  138.5742  158.4267 C.3     1  UNL1        0.1095
     27 C         140.9225  138.5304  159.5830 C.3     1  UNL1        0.0941
     28 C         139.4047  138.0207  155.9516 C.ar    1  UNL1        0.1318
     29 C         139.5091  137.0038  154.8538 C.ar    1  UNL1        0.0343
     30 C         138.5544  137.0477  153.6977 C.ar    1  UNL1        0.0045
     31 C         137.4954  138.1083  153.6392 C.ar    1  UNL1        0.0208
     32 C         137.3911  139.1251  154.7370 C.ar    1  UNL1        0.1003
     33 N         138.3457  139.0813  155.8932 N.ar    1  UNL1       -0.2292
@<TRIPOS>BOND
     1    12    13    1
     2    13    14    1
     3    13     6    1
     4     6     7   ar
     5     7     8   ar
     6     8     9   ar
     7     9     1    1
     8     1     2   ar
     9     2     3   ar
    10     3    21    1
    11    21    22    1
    12    22    23    1
    13    23    24    1
    14    24    25    1
    15    25    28    1
    16    28    29   ar
    17    29    30   ar
    18    30    31   ar
    19    31    32   ar
    20    32    33   ar
    21    25    26    1
    22    26    27    1
    23     3     4   ar
    24     4     5   ar
    25     5    15    1
    26    15    16    1
    27    16    17    1
    28    17    18    1
    29    18    19    1
    30    19    20    1
    31     9    10   ar
    32    10    11   ar
    33    11     6   ar
    34     5     1   ar
    35    20    15    1
    36    27    22    1
    37    33    28   ar
@<TRIPOS>MOLECULE
*****
 33 37 0 0 0
SMALL
GASTEIGER

@<TRIPOS>ATOM
      1 C         140.3013  141.5258  163.2164 C.ar    1  UNL1        0.0790
      2 C         139.1363  141.6379  162.2782 C.ar    1  UNL1        0.0365
      3 C         139.6614  141.5583  160.8754 C.ar    1  UNL1        0.0962
      4 N         141.1511  141.3971  160.9466 N.ar    1  UNL1       -0.1723
      5 N         141.5465  141.3769  162.3934 N.ar    1  UNL1       -0.2531
      6 C         140.0966  141.6194  167.7108 C.ar    1  UNL1       -0.0225
      7 C         140.3736  142.8798  166.9462 C.ar    1  UNL1       -0.0042
      8 C         140.4418  142.8486  165.4481 C.ar    1  UNL1        0.0012
      9 C         140.2330  141.5570  164.7146 C.ar    1  UNL1        0.0173
     10 C         139.9560  140.2966  165.4791 C.ar    1  UNL1        0.0012
     11 C         139.8878  140.3278  166.9773 C.ar    1  UNL1       -0.0042
     12 C         139.2197  140.6235  169.9444 C.3     1  UNL1        0.0047
     13 C         140.0284  141.6506  169.2089 C.3     1  UNL1        0.0224
     14 C         140.7688  142.7090  169.9715 C.3     1  UNL1        0.0047
     15 C         142.9421  141.2332  162.9241 C.3     1  UNL1        0.1052
     16 C         143.4166  139.9057  163.4366 C.3     1  UNL1        0.0244
     17 C         144.8122  139.7619  163.9673 C.3     1  UNL1        0.0020
     18 C         145.7334  140.9457  163.9854 C.3     1  UNL1        0.0001
     19 C         145.2588  142.2731  163.4728 C.3     1  UNL1        0.0020
     20 C         143.8632  142.4168  162.9422 C.3     1  UNL1        0.0244
     21 C         138.8411  141.6279  159.6216 C.3     1  UNL1        0.1206
     22 N         139.0633  142.7407  158.6407 N.3     1  UNL1       -0.2646
     23 C         138.4339  142.6784  157.2805 C.3     1  UNL1        0.0941
     24 C         138.6562  143.7913  156.2996 C.3     1  UNL1        0.1095
     25 N         139.5078  144.9663  156.6789 N.pl3   1  UNL1       -0.2904
     26 C         140.1372  145.0287  158.0389 C.3     1  UNL1        0.1095
     27 C         139.9150  143.9158  159.0199 C.3     1  UNL1        0.0941
     28 C         139.7301  146.0792  155.6979 C.ar    1  UNL1        0.1318
     29 C         139.0625  147.4064  155.9054 C.ar    1  UNL1        0.0343
     30 C         139.2848  148.5192  154.9245 C.ar    1  UNL1        0.0045
     31 C         140.1746  148.3050  153.7362 C.ar    1  UNL1        0.0208
     32 C         140.8422  146.9779  153.5287 C.ar    1  UNL1        0.1003
     33 N         140.6200  145.8650  154.5096 N.ar    1  UNL1       -0.2292
@<TRIPOS>BOND
     1    12    13    1
     2    13    14    1
     3    13     6    1
     4     6     7   ar
     5     7     8   ar
     6     8     9   ar
     7     9     1    1
     8     1     2   ar
     9     2     3   ar
    10     3    21    1
    11    21    22    1
    12    22    23    1
    13    23    24    1
    14    24    25    1
    15    25    28    1
    16    28    29   ar
    17    29    30   ar
    18    30    31   ar
    19    31    32   ar
    20    32    33   ar
    21    25    26    1
    22    26    27    1
    23     3     4   ar
    24     4     5   ar
    25     5    15    1
    26    15    16    1
    27    16    17    1
    28    17    18    1
    29    18    19    1
    30    19    20    1
    31     9    10   ar
    32    10    11   ar
    33    11     6   ar
    34     5     1   ar
    35    20    15    1
    36    27    22    1
    37    33    28   ar
@<TRIPOS>MOLECULE
*****
 33 37 0 0 0
SMALL
GASTEIGER

@<TRIPOS>ATOM
      1 C         141.6551  139.7107  159.8228 C.ar    1  UNL1        0.0790
      2 C         141.8863  139.5109  158.3542 C.ar    1  UNL1        0.0365
      3 C         142.5816  138.1948  158.1692 C.ar    1  UNL1        0.0962
      4 N         142.7803  137.5811  159.5234 N.ar    1  UNL1       -0.1723
      5 N         142.2076  138.5179  160.5454 N.ar    1  UNL1       -0.2531
      6 C         139.6552  143.2640  161.7264 C.ar    1  UNL1       -0.0225
      7 C         138.8254  142.1441  161.1722 C.ar    1  UNL1       -0.0042
      8 C         139.4920  140.9597  160.5377 C.ar    1  UNL1        0.0012
      9 C         140.9884  140.8951  160.4573 C.ar    1  UNL1        0.0173
     10 C         141.8182  142.0150  161.0115 C.ar    1  UNL1        0.0012
     11 C         141.1516  143.1995  161.6461 C.ar    1  UNL1       -0.0042
     12 C         137.7611  144.2571  163.2016 C.3     1  UNL1        0.0047
     13 C         138.9885  144.4485  162.3610 C.3     1  UNL1        0.0224
     14 C         139.5494  145.8243  162.1550 C.3     1  UNL1        0.0047
     15 C         142.1905  138.3003  162.0294 C.3     1  UNL1        0.1052
     16 C         141.1284  137.4413  162.6492 C.3     1  UNL1        0.0244
     17 C         141.1113  137.2236  164.1333 C.3     1  UNL1        0.0020
     18 C         142.1562  137.8648  164.9975 C.3     1  UNL1        0.0001
     19 C         143.2183  138.7237  164.3776 C.3     1  UNL1        0.0020
     20 C         143.2354  138.9414  162.8936 C.3     1  UNL1        0.0244
     21 C         143.0042  137.5973  156.8598 C.3     1  UNL1        0.1206
     22 N         142.6971  136.1606  156.5571 N.3     1  UNL1       -0.2646
     23 C         143.4424  135.0689  157.2662 C.3     1  UNL1        0.0941
     24 C         143.1353  133.6322  156.9636 C.3     1  UNL1        0.1095
     25 N         142.0830  133.2873  155.9518 N.pl3   1  UNL1       -0.2904
     26 C         141.3378  134.3789  155.2427 C.3     1  UNL1        0.1095
     27 C         141.6448  135.8157  155.5454 C.3     1  UNL1        0.0941
     28 C         141.7759  131.8505  155.6491 C.ar    1  UNL1        0.1318
     29 C         140.6151  131.5018  154.7653 C.ar    1  UNL1        0.0343
     30 C         140.3080  130.0652  154.4626 C.ar    1  UNL1        0.0045
     31 C         141.1615  128.9772  155.0436 C.ar    1  UNL1        0.0208
     32 C         142.3223  129.3259  155.9274 C.ar    1  UNL1        0.1003
     33 N         142.6294  130.7626  156.2301 N.ar    1  UNL1       -0.2292
@<TRIPOS>BOND
     1    12    13    1
     2    13    14    1
     3    13     6    1
     4     6     7   ar
     5     7     8   ar
     6     8     9   ar
     7     9     1    1
     8     1     2   ar
     9     2     3   ar
    10     3    21    1
    11    21    22    1
    12    22    23    1
    13    23    24    1
    14    24    25    1
    15    25    28    1
    16    28    29   ar
    17    29    30   ar
    18    30    31   ar
    19    31    32   ar
    20    32    33   ar
    21    25    26    1
    22    26    27    1
    23     3     4   ar
    24     4     5   ar
    25     5    15    1
    26    15    16    1
    27    16    17    1
    28    17    18    1
    29    18    19    1
    30    19    20    1
    31     9    10   ar
    32    10    11   ar
    33    11     6   ar
    34     5     1   ar
    35    20    15    1
    36    27    22    1
    37    33    28   ar
@<TRIPOS>MOLECULE
*****
 33 37 0 0 0
SMALL
GASTEIGER

@<TRIPOS>ATOM
      1 C         142.4505  141.3707  162.4888 C.ar    1  UNL1        0.0790
      2 C         143.4284  140.7811  161.5161 C.ar    1  UNL1        0.0365
      3 C         142.9348  141.0704  160.1295 C.ar    1  UNL1        0.0962
      4 N         141.6518  141.8390  160.2452 N.ar    1  UNL1       -0.1723
      5 N         141.3526  142.0245  161.7033 N.ar    1  UNL1       -0.2531
      6 C         142.7570  141.2071  166.9753 C.ar    1  UNL1       -0.0225
      7 C         143.0758  142.4794  166.2477 C.ar    1  UNL1       -0.0042
      8 C         142.9736  142.5340  164.7522 C.ar    1  UNL1        0.0012
      9 C         142.5527  141.3162  163.9843 C.ar    1  UNL1        0.0173
     10 C         142.2339  140.0438  164.7119 C.ar    1  UNL1        0.0012
     11 C         142.3361  139.9893  166.2074 C.ar    1  UNL1       -0.0042
     12 C         142.4464  139.9119  169.2060 C.3     1  UNL1        0.0047
     13 C         142.8592  141.1525  168.4708 C.3     1  UNL1        0.0224
     14 C         143.3742  142.3385  169.2312 C.3     1  UNL1        0.0047
     15 C         140.1640  142.7386  162.2754 C.3     1  UNL1        0.1052
     16 C         140.2545  144.1986  162.6077 C.3     1  UNL1        0.0244
     17 C         139.0659  144.9127  163.1798 C.3     1  UNL1        0.0020
     18 C         137.7868  144.1668  163.4197 C.3     1  UNL1        0.0001
     19 C         137.6963  142.7069  163.0875 C.3     1  UNL1        0.0020
     20 C         138.8849  141.9928  162.5153 C.3     1  UNL1        0.0244
     21 C         143.6063  140.6628  158.8516 C.3     1  UNL1        0.1206
     22 N         143.3432  139.3074  158.2654 N.3     1  UNL1       -0.2646
     23 C         143.4656  139.0936  156.7858 C.3     1  UNL1        0.0941
     24 C         143.2025  137.7383  156.1995 C.3     1  UNL1        0.1095
     25 N         142.8170  136.5967  157.0929 N.pl3   1  UNL1       -0.2904
     26 C         142.6946  136.8104  158.5725 C.3     1  UNL1        0.1095
     27 C         142.9577  138.1659  159.1588 C.3     1  UNL1        0.0941
     28 C         142.5539  135.2412  156.5067 C.ar    1  UNL1        0.1318
     29 C         143.2587  134.0366  157.0565 C.ar    1  UNL1        0.0343
     30 C         142.9957  132.6812  156.4704 C.ar    1  UNL1        0.0045
     31 C         142.0279  132.5303  155.3344 C.ar    1  UNL1        0.0208
     32 C         141.3230  133.7349  154.7846 C.ar    1  UNL1        0.1003
     33 N         141.5861  135.0903  155.3708 N.ar    1  UNL1       -0.2292
@<TRIPOS>BOND
     1    12    13    1
     2    13    14    1
     3    13     6    1
     4     6     7   ar
     5     7     8   ar
     6     8     9   ar
     7     9     1    1
     8     1     2   ar
     9     2     3   ar
    10     3    21    1
    11    21    22    1
    12    22    23    1
    13    23    24    1
    14    24    25    1
    15    25    28    1
    16    28    29   ar
    17    29    30   ar
    18    30    31   ar
    19    31    32   ar
    20    32    33   ar
    21    25    26    1
    22    26    27    1
    23     3     4   ar
    24     4     5   ar
    25     5    15    1
    26    15    16    1
    27    16    17    1
    28    17    18    1
    29    18    19    1
    30    19    20    1
    31     9    10   ar
    32    10    11   ar
    33    11     6   ar
    34     5     1   ar
    35    20    15    1
    36    27    22    1
    37    33    28   ar
