@<TRIPOS>MOLECULE
*****
 43 48 0 0 0
SMALL
GASTEIGER

@<TRIPOS>ATOM
      1 N         139.8457  145.3873  156.0433 N.3     1  UNL1       -0.2676
      2 C         139.1398  144.0999  155.7363 C.3     1  UNL1        0.0746
      3 C         138.8477  143.1238  156.8371 C.3     1  UNL1        0.0449
      4 C         139.2615  143.4351  158.2449 C.3     1  UNL1        0.1391
      5 C         139.9674  144.7224  158.5519 C.3     1  UNL1        0.0449
      6 C         140.2595  145.6986  157.4511 C.3     1  UNL1        0.0746
      7 C         139.6128  143.6080  159.6929 C.2     1  UNL1        0.2529
      8 O         140.3179  144.7875  160.2943 O.2     1  UNL1       -0.2724
      9 N         139.1352  142.3943  160.4340 N.am    1  UNL1       -0.1907
     10 C         138.4888  141.4713  159.4439 C.2     1  UNL1        0.3219
     11 O         137.8725  140.1391  159.7525 O.2     1  UNL1       -0.2512
     12 N         138.5668  142.1145  158.0910 N.am    1  UNL1       -0.2222
     13 C         138.0423  141.5384  156.8093 C.ar    1  UNL1        0.1453
     14 C         136.6129  141.7646  156.4148 C.ar    1  UNL1        0.0922
     15 C         136.0884  141.1885  155.1330 C.ar    1  UNL1        0.2259
     16 O         134.6590  141.4147  154.7385 O.3     1  UNL1       -0.4919
     17 N         136.9933  140.3860  154.2457 N.ar    1  UNL1       -0.1894
     18 C         138.4227  140.1598  154.6402 C.ar    1  UNL1        0.2027
     19 N         138.9471  140.7359  155.9219 N.ar    1  UNL1       -0.2084
     20 H         134.0937  141.9159  155.2928 H       1  UNL1        0.2938
     21 C         139.2789  142.1471  161.9064 C.ar    1  UNL1        0.0622
     22 C         140.6369  141.9129  162.4986 C.ar    1  UNL1        0.0154
     23 C         140.7806  141.6657  163.9711 C.ar    1  UNL1        0.0013
     24 C         139.5663  141.6527  164.8514 C.ar    1  UNL1        0.0001
     25 C         138.2081  141.8869  164.2592 C.ar    1  UNL1        0.0013
     26 C         138.0645  142.1341  162.7867 C.ar    1  UNL1        0.0154
     27 C         139.7099  141.4055  166.3239 C.ar    1  UNL1        0.0000
     28 C         139.2255  140.1165  166.9188 C.ar    1  UNL1        0.0000
     29 C         139.3691  139.8693  168.3912 C.ar    1  UNL1        0.0011
     30 C         139.9973  140.9111  169.2689 C.ar    1  UNL1        0.0140
     31 C         140.4818  142.2001  168.6740 C.ar    1  UNL1        0.0011
     32 C         140.3381  142.4473  167.2014 C.ar    1  UNL1        0.0000
     33 C         140.1410  140.6639  170.7414 C.2     1  UNL1        0.0729
     34 O         139.5837  139.4110  171.3494 O.co2   1  UNL1       -0.5446
     35 O         140.8419  141.6696  171.6059 O.co2   1  UNL1       -0.5446
     36 C         140.1378  146.3635  154.9425 C.3     1  UNL1        0.1183
     37 C         140.8453  148.3522  152.8106 C.3     1  UNL1        0.0323
     38 C         140.0125  148.7753  153.9843 C.ar    1  UNL1       -0.0069
     39 C         139.5335  150.1926  154.0921 C.ar    1  UNL1       -0.0015
     40 C         138.7008  150.6156  155.2658 C.ar    1  UNL1        0.0203
     41 C         138.3470  149.6213  156.3317 C.ar    1  UNL1        0.0985
     42 N         138.8260  148.2039  156.2240 N.ar    1  UNL1       -0.2471
     43 C         139.6588  147.7809  155.0503 C.ar    1  UNL1        0.0712
@<TRIPOS>UNITY_ATOM_ATTR
34 1
charge -1
@<TRIPOS>BOND
     1    37    38    1
     2    38    39   ar
     3    39    40   ar
     4    40    41   ar
     5    41    42   ar
     6    42    43   ar
     7    43    36    1
     8    36     1    1
     9     1     2    1
    10     2     3    1
    11     3     4    1
    12     4     5    1
    13     5     6    1
    14     4     7    1
    15     7     8    2
    16     7     9   am
    17     9    21    1
    18    21    22   ar
    19    22    23   ar
    20    23    24   ar
    21    24    27    1
    22    27    28   ar
    23    28    29   ar
    24    29    30   ar
    25    30    33    1
    26    33    34   ar
    27    33    35   ar
    28    30    31   ar
    29    31    32   ar
    30    24    25   ar
    31    25    26   ar
    32     9    10   am
    33    10    11    2
    34    10    12   am
    35    12    13    1
    36    13    14   ar
    37    14    15   ar
    38    15    16    1
    39    15    17   ar
    40    17    18   ar
    41    18    19   ar
    42    43    38   ar
    43     6     1    1
    44    26    21   ar
    45    19    13   ar
    46    12     4    1
    47    32    27   ar
    48    16    20    1
@<TRIPOS>MOLECULE
*****
 43 48 0 0 0
SMALL
GASTEIGER

@<TRIPOS>ATOM
      1 N         140.4931  138.5546  156.1417 N.3     1  UNL1       -0.2676
      2 C         139.3351  139.5068  156.0955 C.3     1  UNL1        0.0746
      3 C         138.9748  140.3090  157.3107 C.3     1  UNL1        0.0449
      4 C         139.7726  140.1590  158.5720 C.3     1  UNL1        0.1391
      5 C         140.9306  139.2068  158.6182 C.3     1  UNL1        0.0449
      6 C         141.2909  138.4046  157.4031 C.3     1  UNL1        0.0746
      7 C         140.4744  140.1157  159.8970 C.2     1  UNL1        0.2529
      8 O         141.6597  139.2626  160.2395 O.2     1  UNL1       -0.2724
      9 N         139.7828  141.0754  160.8195 N.am    1  UNL1       -0.1907
     10 C         138.6535  141.7118  160.0645 C.2     1  UNL1        0.3219
     11 O         137.6984  142.7348  160.6038 O.2     1  UNL1       -0.2512
     12 N         138.6472  141.1455  158.6756 N.am    1  UNL1       -0.2222
     13 C         137.6847  141.5028  157.5821 C.ar    1  UNL1        0.1453
     14 C         137.8723  142.7703  156.8022 C.ar    1  UNL1        0.0922
     15 C         136.9097  143.1275  155.7087 C.ar    1  UNL1        0.2259
     16 O         137.0972  144.3950  154.9289 O.3     1  UNL1       -0.4919
     17 N         135.7594  142.2172  155.3950 N.ar    1  UNL1       -0.1894
     18 C         135.5718  140.9497  156.1749 C.ar    1  UNL1        0.2027
     19 N         136.5344  140.5925  157.2684 N.ar    1  UNL1       -0.2084
     20 H         137.8157  144.9637  155.1248 H       1  UNL1        0.2938
     21 C         140.1550  141.3504  162.2463 C.ar    1  UNL1        0.0622
     22 C         140.7849  142.6599  162.6181 C.ar    1  UNL1        0.0154
     23 C         141.1572  142.9348  164.0449 C.ar    1  UNL1        0.0013
     24 C         140.8995  141.9003  165.0999 C.ar    1  UNL1        0.0001
     25 C         140.2696  140.5907  164.7282 C.ar    1  UNL1        0.0013
     26 C         139.8973  140.3157  163.3014 C.ar    1  UNL1        0.0154
     27 C         141.2718  142.1752  166.5267 C.ar    1  UNL1        0.0000
     28 C         140.3053  142.8806  167.4314 C.ar    1  UNL1        0.0000
     29 C         140.6775  143.1555  168.8582 C.ar    1  UNL1        0.0011
     30 C         142.0163  142.7252  169.3804 C.ar    1  UNL1        0.0140
     31 C         142.9828  142.0198  168.4757 C.ar    1  UNL1        0.0011
     32 C         142.6105  141.7449  167.0488 C.ar    1  UNL1        0.0000
     33 C         142.3886  143.0001  170.8072 C.2     1  UNL1        0.0729
     34 O         143.4029  144.0579  171.1272 O.co2   1  UNL1       -0.5446
     35 O         141.7465  142.2173  171.9141 O.co2   1  UNL1       -0.5446
     36 C         140.8534  137.7524  154.9265 C.3     1  UNL1        0.1183
     37 C         143.8510  137.8466  155.0025 C.3     1  UNL1        0.0323
     38 C         143.1391  136.5307  155.1096 C.ar    1  UNL1       -0.0069
     39 C         143.9259  135.2619  155.2548 C.ar    1  UNL1       -0.0015
     40 C         143.2139  133.9460  155.3619 C.ar    1  UNL1        0.0203
     41 C         141.7152  133.8988  155.3240 C.ar    1  UNL1        0.0985
     42 N         140.9283  135.1677  155.1788 N.ar    1  UNL1       -0.2471
     43 C         141.6402  136.4836  155.0717 C.ar    1  UNL1        0.0712
@<TRIPOS>UNITY_ATOM_ATTR
34 1
charge -1
@<TRIPOS>BOND
     1    37    38    1
     2    38    39   ar
     3    39    40   ar
     4    40    41   ar
     5    41    42   ar
     6    42    43   ar
     7    43    36    1
     8    36     1    1
     9     1     2    1
    10     2     3    1
    11     3     4    1
    12     4     5    1
    13     5     6    1
    14     4     7    1
    15     7     8    2
    16     7     9   am
    17     9    21    1
    18    21    22   ar
    19    22    23   ar
    20    23    24   ar
    21    24    27    1
    22    27    28   ar
    23    28    29   ar
    24    29    30   ar
    25    30    33    1
    26    33    34   ar
    27    33    35   ar
    28    30    31   ar
    29    31    32   ar
    30    24    25   ar
    31    25    26   ar
    32     9    10   am
    33    10    11    2
    34    10    12   am
    35    12    13    1
    36    13    14   ar
    37    14    15   ar
    38    15    16    1
    39    15    17   ar
    40    17    18   ar
    41    18    19   ar
    42    43    38   ar
    43     6     1    1
    44    26    21   ar
    45    19    13   ar
    46    12     4    1
    47    32    27   ar
    48    16    20    1
@<TRIPOS>MOLECULE
*****
 43 48 0 0 0
SMALL
GASTEIGER

@<TRIPOS>ATOM
      1 N         143.3886  137.7322  156.3151 N.3     1  UNL1       -0.2676
      2 C         143.8816  139.1224  156.0426 C.3     1  UNL1        0.0746
      3 C         143.8884  140.1443  157.1405 C.3     1  UNL1        0.0449
      4 C         143.4022  139.7762  158.5109 C.3     1  UNL1        0.1391
      5 C         142.9092  138.3860  158.7835 C.3     1  UNL1        0.0449
      6 C         142.9024  137.3640  157.6856 C.3     1  UNL1        0.0746
      7 C         142.9488  139.5556  159.9237 C.2     1  UNL1        0.2529
      8 O         142.4090  138.2743  160.4865 O.2     1  UNL1       -0.2724
      9 N         143.1299  140.8414  160.6748 N.am    1  UNL1       -0.1907
     10 C         143.6953  141.8566  159.7262 C.2     1  UNL1        0.3219
     11 O         144.0331  143.2801  160.0569 O.2     1  UNL1       -0.2512
     12 N         143.8636  141.1983  158.3889 N.am    1  UNL1       -0.2222
     13 C         144.3992  141.8479  157.1475 C.ar    1  UNL1        0.1453
     14 C         145.8734  141.8359  156.8710 C.ar    1  UNL1        0.0922
     15 C         146.4089  142.4855  155.6295 C.ar    1  UNL1        0.2259
     16 O         147.8831  142.4735  155.3530 O.3     1  UNL1       -0.4919
     17 N         145.4702  143.1473  154.6646 N.ar    1  UNL1       -0.1894
     18 C         143.9960  143.1593  154.9412 C.ar    1  UNL1        0.2027
     19 N         143.4605  142.5097  156.1826 N.ar    1  UNL1       -0.2084
     20 H         148.4695  142.0601  155.9557 H       1  UNL1        0.2938
     21 C         142.8031  141.0715  162.1205 C.ar    1  UNL1        0.0622
     22 C         143.8138  140.7438  163.1793 C.ar    1  UNL1        0.0154
     23 C         143.4870  140.9740  164.6250 C.ar    1  UNL1        0.0013
     24 C         142.1495  141.5317  165.0120 C.ar    1  UNL1        0.0001
     25 C         141.1387  141.8594  163.9532 C.ar    1  UNL1        0.0013
     26 C         141.4655  141.6293  162.5075 C.ar    1  UNL1        0.0154
     27 C         141.8227  141.7619  166.4578 C.ar    1  UNL1        0.0000
     28 C         140.4113  141.6065  166.9416 C.ar    1  UNL1        0.0000
     29 C         140.0845  141.8366  168.3874 C.ar    1  UNL1        0.0011
     30 C         141.1690  142.2221  169.3494 C.ar    1  UNL1        0.0140
     31 C         142.5803  142.3775  168.8655 C.ar    1  UNL1        0.0011
     32 C         142.9071  142.1473  167.4197 C.ar    1  UNL1        0.0000
     33 C         140.8422  142.4522  170.7951 C.2     1  UNL1        0.0729
     34 O         141.8562  142.1329  171.8533 O.co2   1  UNL1       -0.5446
     35 O         139.5014  143.0017  171.1827 O.co2   1  UNL1       -0.5446
     36 C         143.3818  136.7101  155.2172 C.3     1  UNL1        0.1183
     37 C         140.7441  135.5985  154.3189 C.3     1  UNL1        0.0323
     38 C         141.7069  134.7293  155.0722 C.ar    1  UNL1       -0.0069
     39 C         141.3509  133.3042  155.3763 C.ar    1  UNL1       -0.0015
     40 C         142.3137  132.4350  156.1295 C.ar    1  UNL1        0.0203
     41 C         143.6325  132.9907  156.5787 C.ar    1  UNL1        0.0985
     42 N         143.9886  134.4158  156.2746 N.ar    1  UNL1       -0.2471
     43 C         143.0258  135.2851  155.5213 C.ar    1  UNL1        0.0712
@<TRIPOS>UNITY_ATOM_ATTR
34 1
charge -1
@<TRIPOS>BOND
     1    37    38    1
     2    38    39   ar
     3    39    40   ar
     4    40    41   ar
     5    41    42   ar
     6    42    43   ar
     7    43    36    1
     8    36     1    1
     9     1     2    1
    10     2     3    1
    11     3     4    1
    12     4     5    1
    13     5     6    1
    14     4     7    1
    15     7     8    2
    16     7     9   am
    17     9    21    1
    18    21    22   ar
    19    22    23   ar
    20    23    24   ar
    21    24    27    1
    22    27    28   ar
    23    28    29   ar
    24    29    30   ar
    25    30    33    1
    26    33    34   ar
    27    33    35   ar
    28    30    31   ar
    29    31    32   ar
    30    24    25   ar
    31    25    26   ar
    32     9    10   am
    33    10    11    2
    34    10    12   am
    35    12    13    1
    36    13    14   ar
    37    14    15   ar
    38    15    16    1
    39    15    17   ar
    40    17    18   ar
    41    18    19   ar
    42    43    38   ar
    43     6     1    1
    44    26    21   ar
    45    19    13   ar
    46    12     4    1
    47    32    27   ar
    48    16    20    1
@<TRIPOS>MOLECULE
*****
 43 48 0 0 0
SMALL
GASTEIGER

@<TRIPOS>ATOM
      1 N         142.5908  136.9782  156.9341 N.3     1  UNL1       -0.2676
      2 C         141.5782  137.9704  156.4441 C.3     1  UNL1        0.0746
      3 C         140.8948  138.8865  157.4155 C.3     1  UNL1        0.0449
      4 C         141.2241  138.8105  158.8769 C.3     1  UNL1        0.1391
      5 C         142.2367  137.8184  159.3670 C.3     1  UNL1        0.0449
      6 C         142.9201  136.9022  158.3956 C.3     1  UNL1        0.0746
      7 C         141.4492  138.8501  160.3594 C.2     1  UNL1        0.2529
      8 O         142.3972  137.9805  161.1308 O.2     1  UNL1       -0.2724
      9 N         140.5599  139.9121  160.9352 N.am    1  UNL1       -0.1907
     10 C         139.7851  140.5288  159.8084 C.2     1  UNL1        0.3219
     11 O         138.7769  141.6324  159.9320 O.2     1  UNL1       -0.2512
     12 N         140.1956  139.8480  158.5364 N.am    1  UNL1       -0.2222
     13 C         139.6700  140.1514  157.1647 C.ar    1  UNL1        0.1453
     14 C         140.3041  141.2324  156.3406 C.ar    1  UNL1        0.0922
     15 C         139.7784  141.5357  154.9689 C.ar    1  UNL1        0.2259
     16 O         140.4126  142.6168  154.1448 O.3     1  UNL1       -0.4919
     17 N         138.6186  140.7580  154.4212 N.ar    1  UNL1       -0.1894
     18 C         137.9844  139.6770  155.2453 C.ar    1  UNL1        0.2027
     19 N         138.5101  139.3737  156.6170 N.ar    1  UNL1       -0.2084
     20 H         141.1371  143.1026  154.4868 H       1  UNL1        0.2938
     21 C         140.4624  140.2908  162.3833 C.ar    1  UNL1        0.0622
     22 C         141.3912  141.3215  162.9531 C.ar    1  UNL1        0.0154
     23 C         141.2938  141.7002  164.4012 C.ar    1  UNL1        0.0013
     24 C         140.2675  141.0482  165.2795 C.ar    1  UNL1        0.0001
     25 C         139.3386  140.0175  164.7097 C.ar    1  UNL1        0.0013
     26 C         139.4360  139.6387  163.2615 C.ar    1  UNL1        0.0154
     27 C         140.1700  141.4269  166.7276 C.ar    1  UNL1        0.0000
     28 C         139.7413  140.4085  167.7420 C.ar    1  UNL1        0.0000
     29 C         139.6438  140.7872  169.1901 C.ar    1  UNL1        0.0011
     30 C         139.9751  142.1844  169.6239 C.ar    1  UNL1        0.0140
     31 C         140.4039  143.2029  168.6095 C.ar    1  UNL1        0.0011
     32 C         140.5014  142.8241  167.1613 C.ar    1  UNL1        0.0000
     33 C         139.8777  142.5631  171.0720 C.2     1  UNL1        0.0729
     34 O         138.9099  143.6237  171.5063 O.co2   1  UNL1       -0.5446
     35 O         140.7480  141.8813  172.0858 O.co2   1  UNL1       -0.5446
     36 C         143.2742  136.0620  155.9627 C.3     1  UNL1        0.1183
     37 C         141.1070  134.6362  154.4559 C.3     1  UNL1        0.0323
     38 C         142.0362  133.8631  155.3441 C.ar    1  UNL1       -0.0069
     39 C         141.8819  132.3772  155.4788 C.ar    1  UNL1       -0.0015
     40 C         142.8112  131.6042  156.3671 C.ar    1  UNL1        0.0203
     41 C         143.8947  132.3170  157.1205 C.ar    1  UNL1        0.0985
     42 N         144.0491  133.8030  156.9857 N.ar    1  UNL1       -0.2471
     43 C         143.1198  134.5761  156.0975 C.ar    1  UNL1        0.0712
@<TRIPOS>UNITY_ATOM_ATTR
34 1
charge -1
@<TRIPOS>BOND
     1    37    38    1
     2    38    39   ar
     3    39    40   ar
     4    40    41   ar
     5    41    42   ar
     6    42    43   ar
     7    43    36    1
     8    36     1    1
     9     1     2    1
    10     2     3    1
    11     3     4    1
    12     4     5    1
    13     5     6    1
    14     4     7    1
    15     7     8    2
    16     7     9   am
    17     9    21    1
    18    21    22   ar
    19    22    23   ar
    20    23    24   ar
    21    24    27    1
    22    27    28   ar
    23    28    29   ar
    24    29    30   ar
    25    30    33    1
    26    33    34   ar
    27    33    35   ar
    28    30    31   ar
    29    31    32   ar
    30    24    25   ar
    31    25    26   ar
    32     9    10   am
    33    10    11    2
    34    10    12   am
    35    12    13    1
    36    13    14   ar
    37    14    15   ar
    38    15    16    1
    39    15    17   ar
    40    17    18   ar
    41    18    19   ar
    42    43    38   ar
    43     6     1    1
    44    26    21   ar
    45    19    13   ar
    46    12     4    1
    47    32    27   ar
    48    16    20    1
@<TRIPOS>MOLECULE
*****
 43 48 0 0 0
SMALL
GASTEIGER

@<TRIPOS>ATOM
      1 N         144.6859  140.1844  156.2028 N.3     1  UNL1       -0.2676
      2 C         143.6141  139.1403  156.0976 C.3     1  UNL1        0.0746
      3 C         142.7387  138.8425  157.2787 C.3     1  UNL1        0.0449
      4 C         142.9351  139.5888  158.5650 C.3     1  UNL1        0.1391
      5 C         144.0069  140.6329  158.6702 C.3     1  UNL1        0.0449
      6 C         144.8823  140.9307  157.4891 C.3     1  UNL1        0.0746
      7 C         143.0130  140.2499  159.9091 C.2     1  UNL1        0.2529
      8 O         143.9798  141.3251  160.3082 O.2     1  UNL1       -0.2724
      9 N         141.9541  139.6472  160.7842 N.am    1  UNL1       -0.1907
     10 C         141.2219  138.6135  159.9808 C.2     1  UNL1        0.3219
     11 O         140.0834  137.7650  160.4641 O.2     1  UNL1       -0.2512
     12 N         141.8282  138.5774  158.6093 N.am    1  UNL1       -0.2222
     13 C         141.4024  137.6864  157.4802 C.ar    1  UNL1        0.1453
     14 C         140.1639  138.0076  156.6974 C.ar    1  UNL1        0.0922
     15 C         139.7381  137.1165  155.5683 C.ar    1  UNL1        0.2259
     16 O         138.4996  137.4378  154.7854 O.3     1  UNL1       -0.4919
     17 N         140.5509  135.9042  155.2221 N.ar    1  UNL1       -0.1894
     18 C         141.7894  135.5830  156.0050 C.ar    1  UNL1        0.2027
     19 N         142.2151  136.4741  157.1340 N.ar    1  UNL1       -0.2084
     20 H         137.9919  138.1950  155.0017 H       1  UNL1        0.2938
     21 C         141.6763  140.0138  162.2119 C.ar    1  UNL1        0.0622
     22 C         141.0826  141.3513  162.5409 C.ar    1  UNL1        0.0154
     23 C         140.8047  141.7179  163.9686 C.ar    1  UNL1        0.0013
     24 C         141.1206  140.7470  165.0674 C.ar    1  UNL1        0.0001
     25 C         141.7144  139.4093  164.7384 C.ar    1  UNL1        0.0013
     26 C         141.9922  139.0428  163.3107 C.ar    1  UNL1        0.0154
     27 C         140.8428  141.1136  166.4951 C.ar    1  UNL1        0.0000
     28 C         140.9514  142.5428  166.9372 C.ar    1  UNL1        0.0000
     29 C         140.6736  142.9094  168.3649 C.ar    1  UNL1        0.0011
     30 C         140.2871  141.8467  169.3506 C.ar    1  UNL1        0.0140
     31 C         140.1785  140.4175  168.9085 C.ar    1  UNL1        0.0011
     32 C         140.4564  140.0509  167.4807 C.ar    1  UNL1        0.0000
     33 C         140.0093  142.2133  170.7783 C.2     1  UNL1        0.0729
     34 O         139.1816  143.4237  171.0944 O.co2   1  UNL1       -0.5446
     35 O         140.5592  141.3696  171.8900 O.co2   1  UNL1       -0.5446
     36 C         145.5613  140.4823  155.0217 C.3     1  UNL1        0.1183
     37 C         148.1971  141.8670  155.3898 C.3     1  UNL1        0.0323
     38 C         147.0545  142.5897  154.7401 C.ar    1  UNL1       -0.0069
     39 C         147.2299  144.0047  154.2744 C.ar    1  UNL1       -0.0015
     40 C         146.0873  144.7275  153.6246 C.ar    1  UNL1        0.0203
     41 C         144.7694  144.0352  153.4406 C.ar    1  UNL1        0.0985
     42 N         144.5941  142.6201  153.9063 N.ar    1  UNL1       -0.2471
     43 C         145.7366  141.8974  154.5560 C.ar    1  UNL1        0.0712
@<TRIPOS>UNITY_ATOM_ATTR
34 1
charge -1
@<TRIPOS>BOND
     1    37    38    1
     2    38    39   ar
     3    39    40   ar
     4    40    41   ar
     5    41    42   ar
     6    42    43   ar
     7    43    36    1
     8    36     1    1
     9     1     2    1
    10     2     3    1
    11     3     4    1
    12     4     5    1
    13     5     6    1
    14     4     7    1
    15     7     8    2
    16     7     9   am
    17     9    21    1
    18    21    22   ar
    19    22    23   ar
    20    23    24   ar
    21    24    27    1
    22    27    28   ar
    23    28    29   ar
    24    29    30   ar
    25    30    33    1
    26    33    34   ar
    27    33    35   ar
    28    30    31   ar
    29    31    32   ar
    30    24    25   ar
    31    25    26   ar
    32     9    10   am
    33    10    11    2
    34    10    12   am
    35    12    13    1
    36    13    14   ar
    37    14    15   ar
    38    15    16    1
    39    15    17   ar
    40    17    18   ar
    41    18    19   ar
    42    43    38   ar
    43     6     1    1
    44    26    21   ar
    45    19    13   ar
    46    12     4    1
    47    32    27   ar
    48    16    20    1
@<TRIPOS>MOLECULE
*****
 43 48 0 0 0
SMALL
GASTEIGER

@<TRIPOS>ATOM
      1 N         138.7182  139.1295  160.9512 N.3     1  UNL1       -0.2676
      2 C         139.2713  138.5618  159.6778 C.3     1  UNL1        0.0746
      3 C         139.5378  139.4628  158.5086 C.3     1  UNL1        0.0449
      4 C         139.2511  140.9315  158.6128 C.3     1  UNL1        0.1391
      5 C         138.6979  141.4991  159.8862 C.3     1  UNL1        0.0449
      6 C         138.4315  140.5981  161.0555 C.3     1  UNL1        0.0746
      7 C         139.0154  142.4122  158.5690 C.2     1  UNL1        0.2529
      8 O         138.4719  143.2519  159.6868 O.2     1  UNL1       -0.2724
      9 N         139.4187  142.9058  157.2111 N.am    1  UNL1       -0.1907
     10 C         139.9036  141.7301  156.4156 C.2     1  UNL1        0.3219
     11 O         140.4041  141.7680  155.0022 O.2     1  UNL1       -0.2512
     12 N         139.8000  140.5099  157.2819 N.am    1  UNL1       -0.2222
     13 C         140.1788  139.1134  156.8868 C.ar    1  UNL1        0.1453
     14 C         141.5624  138.6047  157.1639 C.ar    1  UNL1        0.0922
     15 C         141.9411  137.2081  156.7688 C.ar    1  UNL1        0.2259
     16 O         143.3248  136.6994  157.0459 O.3     1  UNL1       -0.4919
     17 N         140.9363  136.3202  156.0965 N.ar    1  UNL1       -0.1894
     18 C         139.5527  136.8289  155.8194 C.ar    1  UNL1        0.2027
     19 N         139.1740  138.2255  156.2145 N.ar    1  UNL1       -0.2084
     20 H         143.9525  137.2541  157.4658 H       1  UNL1        0.2938
     21 C         139.3492  144.3258  156.7326 C.ar    1  UNL1        0.0622
     22 C         138.3673  144.7107  155.6661 C.ar    1  UNL1        0.0154
     23 C         138.2978  146.1306  155.1877 C.ar    1  UNL1        0.0013
     24 C         139.2103  147.1657  155.7758 C.ar    1  UNL1        0.0001
     25 C         140.1923  146.7808  156.8423 C.ar    1  UNL1        0.0013
     26 C         140.2617  145.3608  157.3208 C.ar    1  UNL1        0.0154
     27 C         139.1409  148.5856  155.2973 C.ar    1  UNL1        0.0000
     28 C         138.5434  149.6446  156.1757 C.ar    1  UNL1        0.0000
     29 C         138.4740  151.0646  155.6973 C.ar    1  UNL1        0.0011
     30 C         139.0020  151.4255  154.3404 C.ar    1  UNL1        0.0140
     31 C         139.5994  150.3665  153.4620 C.ar    1  UNL1        0.0011
     32 C         139.6688  148.9465  153.9405 C.ar    1  UNL1        0.0000
     33 C         138.9325  152.8455  153.8620 C.2     1  UNL1        0.0729
     34 O         138.1149  153.1903  152.6526 O.co2   1  UNL1       -0.5446
     35 O         139.6807  153.9207  154.5929 O.co2   1  UNL1       -0.5446
     36 C         138.4517  138.2285  162.1206 C.3     1  UNL1        0.1183
     37 C         141.1255  137.2568  163.0727 C.3     1  UNL1        0.0323
     38 C         140.2812  138.1205  163.9622 C.ar    1  UNL1       -0.0069
     39 C         140.7737  138.4983  165.3276 C.ar    1  UNL1       -0.0015
     40 C         139.9294  139.3620  166.2171 C.ar    1  UNL1        0.0203
     41 C         138.5925  139.8478  165.7411 C.ar    1  UNL1        0.0985
     42 N         138.0999  139.4700  164.3755 N.ar    1  UNL1       -0.2471
     43 C         138.9442  138.6063  163.4861 C.ar    1  UNL1        0.0712
@<TRIPOS>UNITY_ATOM_ATTR
34 1
charge -1
@<TRIPOS>BOND
     1    37    38    1
     2    38    39   ar
     3    39    40   ar
     4    40    41   ar
     5    41    42   ar
     6    42    43   ar
     7    43    36    1
     8    36     1    1
     9     1     2    1
    10     2     3    1
    11     3     4    1
    12     4     5    1
    13     5     6    1
    14     4     7    1
    15     7     8    2
    16     7     9   am
    17     9    21    1
    18    21    22   ar
    19    22    23   ar
    20    23    24   ar
    21    24    27    1
    22    27    28   ar
    23    28    29   ar
    24    29    30   ar
    25    30    33    1
    26    33    34   ar
    27    33    35   ar
    28    30    31   ar
    29    31    32   ar
    30    24    25   ar
    31    25    26   ar
    32     9    10   am
    33    10    11    2
    34    10    12   am
    35    12    13    1
    36    13    14   ar
    37    14    15   ar
    38    15    16    1
    39    15    17   ar
    40    17    18   ar
    41    18    19   ar
    42    43    38   ar
    43     6     1    1
    44    26    21   ar
    45    19    13   ar
    46    12     4    1
    47    32    27   ar
    48    16    20    1
@<TRIPOS>MOLECULE
*****
 43 48 0 0 0
SMALL
GASTEIGER

@<TRIPOS>ATOM
      1 N         144.6275  140.3389  156.1187 N.3     1  UNL1       -0.2676
      2 C         143.3812  139.5294  155.9160 C.3     1  UNL1        0.0746
      3 C         142.4331  139.3135  157.0581 C.3     1  UNL1        0.0449
      4 C         142.7313  139.9072  158.4029 C.3     1  UNL1        0.1391
      5 C         143.9777  140.7167  158.6057 C.3     1  UNL1        0.0449
      6 C         144.9258  140.9326  157.4636 C.3     1  UNL1        0.0746
      7 C         142.8955  140.4357  159.7971 C.2     1  UNL1        0.2529
      8 O         144.0367  141.2729  160.2940 O.2     1  UNL1       -0.2724
      9 N         141.7182  139.9800  160.6073 N.am    1  UNL1       -0.1907
     10 C         140.8263  139.1698  159.7138 C.2     1  UNL1        0.3219
     11 O         139.5352  138.5190  160.1125 O.2     1  UNL1       -0.2512
     12 N         141.4525  139.1248  158.3515 N.am    1  UNL1       -0.2222
     13 C         140.8974  138.4210  157.1488 C.ar    1  UNL1        0.1453
     14 C         141.2240  136.9770  156.9075 C.ar    1  UNL1        0.0922
     15 C         140.6688  136.2734  155.7048 C.ar    1  UNL1        0.2259
     16 O         140.9954  134.8294  155.4635 O.3     1  UNL1       -0.4919
     17 N         139.7870  137.0136  154.7432 N.ar    1  UNL1       -0.1894
     18 C         139.4604  138.4576  154.9845 C.ar    1  UNL1        0.2027
     19 N         140.0156  139.1613  156.1872 N.ar    1  UNL1       -0.2084
     20 H         141.5462  134.3669  156.0642 H       1  UNL1        0.2938
     21 C         141.4753  140.2815  162.0565 C.ar    1  UNL1        0.0622
     22 C         141.3292  139.1600  163.0416 C.ar    1  UNL1        0.0154
     23 C         141.0863  139.4615  164.4908 C.ar    1  UNL1        0.0013
     24 C         140.9896  140.8846  164.9548 C.ar    1  UNL1        0.0001
     25 C         141.1357  142.0062  163.9695 C.ar    1  UNL1        0.0013
     26 C         141.3785  141.7047  162.5204 C.ar    1  UNL1        0.0154
     27 C         140.7467  141.1861  166.4039 C.ar    1  UNL1        0.0000
     28 C         140.4259  140.0739  167.3579 C.ar    1  UNL1        0.0000
     29 C         140.1830  140.3754  168.8070 C.ar    1  UNL1        0.0011
     30 C         140.2610  141.7892  169.3023 C.ar    1  UNL1        0.0140
     31 C         140.5818  142.9014  168.3483 C.ar    1  UNL1        0.0011
     32 C         140.8247  142.5999  166.8991 C.ar    1  UNL1        0.0000
     33 C         140.0181  142.0907  170.7515 C.2     1  UNL1        0.0729
     34 O         140.5564  141.1731  171.8089 O.co2   1  UNL1       -0.5446
     35 O         139.2370  143.3100  171.1432 O.co2   1  UNL1       -0.5446
     36 C         145.5757  140.5549  154.9766 C.3     1  UNL1        0.1183
     37 C         148.2954  141.7566  155.3759 C.3     1  UNL1        0.0323
     38 C         147.2199  142.5460  154.6901 C.ar    1  UNL1       -0.0069
     39 C         147.5043  143.9362  154.2040 C.ar    1  UNL1       -0.0015
     40 C         146.4289  144.7256  153.5182 C.ar    1  UNL1        0.0203
     41 C         145.0691  144.1248  153.3186 C.ar    1  UNL1        0.0985
     42 N         144.7847  142.7345  153.8047 N.ar    1  UNL1       -0.2471
     43 C         145.8601  141.9451  154.4905 C.ar    1  UNL1        0.0712
@<TRIPOS>UNITY_ATOM_ATTR
34 1
charge -1
@<TRIPOS>BOND
     1    37    38    1
     2    38    39   ar
     3    39    40   ar
     4    40    41   ar
     5    41    42   ar
     6    42    43   ar
     7    43    36    1
     8    36     1    1
     9     1     2    1
    10     2     3    1
    11     3     4    1
    12     4     5    1
    13     5     6    1
    14     4     7    1
    15     7     8    2
    16     7     9   am
    17     9    21    1
    18    21    22   ar
    19    22    23   ar
    20    23    24   ar
    21    24    27    1
    22    27    28   ar
    23    28    29   ar
    24    29    30   ar
    25    30    33    1
    26    33    34   ar
    27    33    35   ar
    28    30    31   ar
    29    31    32   ar
    30    24    25   ar
    31    25    26   ar
    32     9    10   am
    33    10    11    2
    34    10    12   am
    35    12    13    1
    36    13    14   ar
    37    14    15   ar
    38    15    16    1
    39    15    17   ar
    40    17    18   ar
    41    18    19   ar
    42    43    38   ar
    43     6     1    1
    44    26    21   ar
    45    19    13   ar
    46    12     4    1
    47    32    27   ar
    48    16    20    1
@<TRIPOS>MOLECULE
*****
 43 48 0 0 0
SMALL
GASTEIGER

@<TRIPOS>ATOM
      1 N         143.5242  142.3481  156.0509 N.3     1  UNL1       -0.2676
      2 C         142.3013  143.2153  155.9996 C.3     1  UNL1        0.0746
      3 C         141.5633  143.5463  157.2627 C.3     1  UNL1        0.0449
      4 C         142.0480  143.0103  158.5771 C.3     1  UNL1        0.1391
      5 C         143.2708  142.1431  158.6284 C.3     1  UNL1        0.0449
      6 C         144.0089  141.8120  157.3653 C.3     1  UNL1        0.0746
      7 C         142.4118  142.5494  159.9575 C.2     1  UNL1        0.2529
      8 O         143.5775  141.6766  160.3170 O.2     1  UNL1       -0.2724
      9 N         141.4051  143.1147  160.9153 N.am    1  UNL1       -0.1907
     10 C         140.4192  143.9249  160.1267 C.2     1  UNL1        0.3219
     11 O         139.2426  144.6689  160.6852 O.2     1  UNL1       -0.2512
     12 N         140.8165  143.8604  158.6818 N.am    1  UNL1       -0.2222
     13 C         140.1070  144.5285  157.5416 C.ar    1  UNL1        0.1453
     14 C         140.4492  145.9408  157.1695 C.ar    1  UNL1        0.0922
     15 C         139.7397  146.6089  156.0293 C.ar    1  UNL1        0.2259
     16 O         140.0819  148.0211  155.6572 O.3     1  UNL1       -0.4919
     17 N         138.6879  145.8648  155.2610 N.ar    1  UNL1       -0.1894
     18 C         138.3457  144.4525  155.6331 C.ar    1  UNL1        0.2027
     19 N         139.0552  143.7844  156.7733 N.ar    1  UNL1       -0.2084
     20 H         140.7389  148.4859  156.1370 H       1  UNL1        0.2938
     21 C         141.3874  142.9064  162.4006 C.ar    1  UNL1        0.0622
     22 C         142.5312  143.3932  163.2398 C.ar    1  UNL1        0.0154
     23 C         142.5136  143.1849  164.7252 C.ar    1  UNL1        0.0013
     24 C         141.3521  142.4897  165.3713 C.ar    1  UNL1        0.0001
     25 C         140.2082  142.0028  164.5320 C.ar    1  UNL1        0.0013
     26 C         140.2259  142.2111  163.0466 C.ar    1  UNL1        0.0154
     27 C         141.3345  142.2813  166.8566 C.ar    1  UNL1        0.0000
     28 C         142.2975  141.3221  167.4909 C.ar    1  UNL1        0.0000
     29 C         142.2799  141.1138  168.9763 C.ar    1  UNL1        0.0011
     30 C         141.2991  141.8647  169.8274 C.ar    1  UNL1        0.0140
     31 C         140.3360  142.8239  169.1931 C.ar    1  UNL1        0.0011
     32 C         140.3537  143.0323  167.7076 C.ar    1  UNL1        0.0000
     33 C         141.2815  141.6563  171.3127 C.2     1  UNL1        0.0729
     34 O         142.2954  140.7575  171.9560 O.co2   1  UNL1       -0.5446
     35 O         140.2498  142.3469  172.1547 O.co2   1  UNL1       -0.5446
     36 C         144.2623  142.0170  154.7877 C.3     1  UNL1        0.1183
     37 C         147.1786  141.8081  155.4598 C.3     1  UNL1        0.0323
     38 C         146.6956  142.8947  154.5454 C.ar    1  UNL1       -0.0069
     39 C         147.6707  143.8769  153.9671 C.ar    1  UNL1       -0.0015
     40 C         147.1877  144.9635  153.0528 C.ar    1  UNL1        0.0203
     41 C         145.7296  145.0680  152.7168 C.ar    1  UNL1        0.0985
     42 N         144.7544  144.0858  153.2951 N.ar    1  UNL1       -0.2471
     43 C         145.2374  142.9991  154.2094 C.ar    1  UNL1        0.0712
@<TRIPOS>UNITY_ATOM_ATTR
34 1
charge -1
@<TRIPOS>BOND
     1    37    38    1
     2    38    39   ar
     3    39    40   ar
     4    40    41   ar
     5    41    42   ar
     6    42    43   ar
     7    43    36    1
     8    36     1    1
     9     1     2    1
    10     2     3    1
    11     3     4    1
    12     4     5    1
    13     5     6    1
    14     4     7    1
    15     7     8    2
    16     7     9   am
    17     9    21    1
    18    21    22   ar
    19    22    23   ar
    20    23    24   ar
    21    24    27    1
    22    27    28   ar
    23    28    29   ar
    24    29    30   ar
    25    30    33    1
    26    33    34   ar
    27    33    35   ar
    28    30    31   ar
    29    31    32   ar
    30    24    25   ar
    31    25    26   ar
    32     9    10   am
    33    10    11    2
    34    10    12   am
    35    12    13    1
    36    13    14   ar
    37    14    15   ar
    38    15    16    1
    39    15    17   ar
    40    17    18   ar
    41    18    19   ar
    42    43    38   ar
    43     6     1    1
    44    26    21   ar
    45    19    13   ar
    46    12     4    1
    47    32    27   ar
    48    16    20    1
@<TRIPOS>MOLECULE
*****
 43 48 0 0 0
SMALL
GASTEIGER

@<TRIPOS>ATOM
      1 N         139.1038  139.5264  155.9588 N.3     1  UNL1       -0.2676
      2 C         140.4044  138.7796  155.9340 C.3     1  UNL1        0.0746
      3 C         141.2598  138.7223  157.1649 C.3     1  UNL1        0.0449
      4 C         140.8146  139.4117  158.4204 C.3     1  UNL1        0.1391
      5 C         139.5140  140.1585  158.4452 C.3     1  UNL1        0.0449
      6 C         138.6586  140.2158  157.2144 C.3     1  UNL1        0.0746
      7 C         140.5020  140.0488  159.7419 C.2     1  UNL1        0.2529
      8 O         139.2790  140.8552  160.0646 O.2     1  UNL1       -0.2724
      9 N         141.6270  139.7380  160.6842 N.am    1  UNL1       -0.1907
     10 C         142.6350  138.9088  159.9449 C.2     1  UNL1        0.3219
     11 O         143.9195  138.3750  160.5062 O.2     1  UNL1       -0.2512
     12 N         142.1330  138.7071  158.5459 N.am    1  UNL1       -0.2222
     13 C         142.8272  137.9362  157.4626 C.ar    1  UNL1        0.1453
     14 C         142.6409  136.4513  157.3613 C.ar    1  UNL1        0.0922
     15 C         143.3352  135.6805  156.2779 C.ar    1  UNL1        0.2259
     16 O         143.1489  134.1956  156.1766 O.3     1  UNL1       -0.4919
     17 N         144.2158  136.3945  155.2957 N.ar    1  UNL1       -0.1894
     18 C         144.4021  137.8795  155.3970 C.ar    1  UNL1        0.2027
     19 N         143.7078  138.6503  156.4804 N.ar    1  UNL1       -0.2084
     20 H         142.5988  133.7495  156.7902 H       1  UNL1        0.2938
     21 C         141.7266  140.1790  162.1144 C.ar    1  UNL1        0.0622
     22 C         140.7309  139.6865  163.1222 C.ar    1  UNL1        0.0154
     23 C         140.8305  140.1275  164.5524 C.ar    1  UNL1        0.0013
     24 C         141.9258  141.0610  164.9748 C.ar    1  UNL1        0.0001
     25 C         142.9216  141.5536  163.9670 C.ar    1  UNL1        0.0013
     26 C         142.8220  141.1126  162.5368 C.ar    1  UNL1        0.0154
     27 C         142.0254  141.5020  166.4051 C.ar    1  UNL1        0.0000
     28 C         140.8308  141.3994  167.3065 C.ar    1  UNL1        0.0000
     29 C         140.9304  141.8404  168.7367 C.ar    1  UNL1        0.0011
     30 C         142.2246  142.3840  169.2656 C.ar    1  UNL1        0.0140
     31 C         143.4192  142.4867  168.3642 C.ar    1  UNL1        0.0011
     32 C         143.3195  142.0456  166.9339 C.ar    1  UNL1        0.0000
     33 C         142.3242  142.8250  170.6958 C.2     1  UNL1        0.0729
     34 O         141.4883  142.1565  171.7467 O.co2   1  UNL1       -0.5446
     35 O         143.2596  143.9346  171.0752 O.co2   1  UNL1       -0.5446
     36 C         138.2484  139.5838  154.7279 C.3     1  UNL1        0.1183
     37 C         137.4802  142.3977  154.0266 C.3     1  UNL1        0.0323
     38 C         136.4320  141.4247  154.4789 C.ar    1  UNL1       -0.0069
     39 C         134.9998  141.8586  154.5805 C.ar    1  UNL1       -0.0015
     40 C         133.9516  140.8856  155.0328 C.ar    1  UNL1        0.0203
     41 C         134.3356  139.4787  155.3835 C.ar    1  UNL1        0.0985
     42 N         135.7679  139.0447  155.2819 N.ar    1  UNL1       -0.2471
     43 C         136.8161  140.0177  154.8296 C.ar    1  UNL1        0.0712
@<TRIPOS>UNITY_ATOM_ATTR
34 1
charge -1
@<TRIPOS>BOND
     1    37    38    1
     2    38    39   ar
     3    39    40   ar
     4    40    41   ar
     5    41    42   ar
     6    42    43   ar
     7    43    36    1
     8    36     1    1
     9     1     2    1
    10     2     3    1
    11     3     4    1
    12     4     5    1
    13     5     6    1
    14     4     7    1
    15     7     8    2
    16     7     9   am
    17     9    21    1
    18    21    22   ar
    19    22    23   ar
    20    23    24   ar
    21    24    27    1
    22    27    28   ar
    23    28    29   ar
    24    29    30   ar
    25    30    33    1
    26    33    34   ar
    27    33    35   ar
    28    30    31   ar
    29    31    32   ar
    30    24    25   ar
    31    25    26   ar
    32     9    10   am
    33    10    11    2
    34    10    12   am
    35    12    13    1
    36    13    14   ar
    37    14    15   ar
    38    15    16    1
    39    15    17   ar
    40    17    18   ar
    41    18    19   ar
    42    43    38   ar
    43     6     1    1
    44    26    21   ar
    45    19    13   ar
    46    12     4    1
    47    32    27   ar
    48    16    20    1
