@<TRIPOS>MOLECULE
*****
 40 44 0 0 0
SMALL
GASTEIGER

@<TRIPOS>ATOM
      1 N         139.8372  140.2400  167.3635 N.3     1  UNL1       -0.2700
      2 C         138.6049  139.6650  166.7304 C.3     1  UNL1        0.0739
      3 C         138.3414  139.8814  165.2697 C.3     1  UNL1        0.0374
      4 C         139.3102  140.6728  164.4420 C.3     1  UNL1        0.0832
      5 C         140.5425  141.2478  165.0750 C.3     1  UNL1        0.1103
      6 C         140.8060  141.0314  166.5358 C.3     1  UNL1        0.0829
      7 N         139.0466  140.8892  162.9813 N.am    1  UNL1       -0.3006
      8 C         139.2874  139.7780  162.0030 C.2     1  UNL1        0.2669
      9 O         139.7918  138.4502  162.4855 O.2     1  UNL1       -0.2684
     10 H         138.7156  141.7607  162.6646 H       1  UNL1        0.1497
     11 C         139.0239  139.9944  160.5423 C.ar    1  UNL1        0.1761
     12 C         138.6831  141.3026  159.8922 C.ar    1  UNL1        0.0673
     13 C         138.5035  141.0573  158.4233 C.ar    1  UNL1        0.1792
     14 O         138.7332  139.5975  158.1656 O.2     1  UNL1       -0.3532
     15 N         139.0548  138.9406  159.4752 N.ar    1  UNL1       -0.0723
     16 C         138.1553  142.0904  157.3931 C.ar    1  UNL1        0.0648
     17 C         139.0921  143.2316  157.1289 C.ar    1  UNL1        0.0077
     18 C         138.7439  144.2647  156.0986 C.ar    1  UNL1        0.0299
     19 C         137.4588  144.1566  155.3326 C.ar    1  UNL1        0.1424
     20 F         137.1107  145.1898  154.3023 F       1  UNL1       -0.2041
     21 C         136.5219  143.0153  155.5968 C.ar    1  UNL1        0.0593
     22 C         136.8701  141.9822  156.6270 C.ar    1  UNL1        0.1453
     23 F         135.9333  140.8410  156.8912 F       1  UNL1       -0.2040
     24 C         141.5113  142.0393  164.2473 C.2     1  UNL1        0.2252
     25 O         142.1885  141.4013  163.0707 O.2     1  UNL1       -0.2750
     26 N         141.8029  143.4686  164.5963 N.am    1  UNL1       -0.3010
     27 H         141.3585  143.8874  165.3685 H       1  UNL1        0.1497
     28 C         142.7718  144.2601  163.7686 C.3     1  UNL1        0.1089
     29 C         144.0546  144.9009  163.3284 C.3     1  UNL1        0.0274
     30 C         144.0123  144.1012  164.5968 C.3     1  UNL1        0.0274
     31 C         141.8677  144.6937  162.6530 C.ar    1  UNL1        0.1549
     32 N         142.2697  144.4579  161.2272 N.ar    1  UNL1       -0.2276
     33 C         141.3656  144.8915  160.1116 C.ar    1  UNL1        0.1019
     34 C         140.0596  145.5609  160.4216 C.ar    1  UNL1        0.0413
     35 C         139.6577  145.7968  161.8474 C.ar    1  UNL1        0.1019
     36 N         140.5617  145.3632  162.9631 N.ar    1  UNL1       -0.2276
     37 C         140.1008  140.0236  168.8242 C.3     1  UNL1        0.1046
     38 C         139.0895  140.4617  169.8417 C.3     1  UNL1        0.1595
     39 C         140.1261  142.8412  169.9591 C.3     1  UNL1        0.1742
     40 O         139.2617  141.7699  170.5552 O.3     1  UNL1       -0.3496
@<TRIPOS>BOND
     1    39    40    1
     2    40    38    1
     3    38    37    1
     4    37     1    1
     5     1     2    1
     6     2     3    1
     7     3     4    1
     8     4     7    1
     9     7     8   am
    10     8     9    2
    11     8    11    1
    12    11    12   ar
    13    12    13   ar
    14    13    16    1
    15    16    17   ar
    16    17    18   ar
    17    18    19   ar
    18    19    20    1
    19    19    21   ar
    20    21    22   ar
    21    22    23    1
    22    13    14   ar
    23    14    15   ar
    24     4     5    1
    25     5    24    1
    26    24    25    2
    27    24    26   am
    28    26    28    1
    29    28    31    1
    30    31    32   ar
    31    32    33   ar
    32    33    34   ar
    33    34    35   ar
    34    35    36   ar
    35    28    29    1
    36    29    30    1
    37     5     6    1
    38     6     1    1
    39    15    11   ar
    40    30    28    1
    41    22    16   ar
    42    36    31   ar
    43     7    10    1
    44    26    27    1
@<TRIPOS>MOLECULE
*****
 40 44 0 0 0
SMALL
GASTEIGER

@<TRIPOS>ATOM
      1 N         141.5354  140.1760  168.4213 N.3     1  UNL1       -0.2700
      2 C         142.6352  139.2498  167.9940 C.3     1  UNL1        0.0739
      3 C         143.0300  139.1707  166.5491 C.3     1  UNL1        0.0374
      4 C         142.3251  140.0177  165.5315 C.3     1  UNL1        0.0832
      5 C         141.2253  140.9439  165.9588 C.3     1  UNL1        0.1103
      6 C         140.8305  141.0230  167.4037 C.3     1  UNL1        0.0829
      7 N         142.7200  139.9385  164.0866 N.am    1  UNL1       -0.3006
      8 C         142.3416  138.7384  163.2703 C.2     1  UNL1        0.2669
      9 O         141.5683  137.6172  163.8990 O.2     1  UNL1       -0.2684
     10 H         143.2275  140.6743  163.6740 H       1  UNL1        0.1497
     11 C         142.7365  138.6592  161.8254 C.ar    1  UNL1        0.1761
     12 C         141.8671  138.1856  160.6984 C.ar    1  UNL1        0.0673
     13 C         142.6634  138.2734  159.4303 C.ar    1  UNL1        0.1792
     14 O         144.0249  138.8013  159.7734 O.2     1  UNL1       -0.3532
     15 N         144.0700  139.0397  161.2537 N.ar    1  UNL1       -0.0723
     16 C         142.1826  137.8991  158.0596 C.ar    1  UNL1        0.0648
     17 C         142.7741  136.7145  157.3549 C.ar    1  UNL1        0.0077
     18 C         142.2933  136.3402  155.9843 C.ar    1  UNL1        0.0299
     19 C         141.2209  137.1505  155.3183 C.ar    1  UNL1        0.1424
     20 F         140.7402  136.7761  153.9477 F       1  UNL1       -0.2041
     21 C         140.6294  138.3351  156.0231 C.ar    1  UNL1        0.0593
     22 C         141.1102  138.7094  157.3937 C.ar    1  UNL1        0.1453
     23 F         140.5187  139.8941  158.0984 F       1  UNL1       -0.2040
     24 C         140.5204  141.7910  164.9411 C.2     1  UNL1        0.2252
     25 O         141.3105  142.5197  163.8949 O.2     1  UNL1       -0.2750
     26 N         139.0253  141.9093  164.9697 N.am    1  UNL1       -0.3010
     27 H         138.5068  141.4309  165.6564 H       1  UNL1        0.1497
     28 C         138.3204  142.7563  163.9521 C.3     1  UNL1        0.1089
     29 C         137.6526  143.9448  163.3263 C.3     1  UNL1        0.0274
     30 C         138.1826  144.0334  164.7268 C.3     1  UNL1        0.0274
     31 C         138.2134  141.7734  162.8241 C.ar    1  UNL1        0.1549
     32 N         138.4210  142.2291  161.4102 N.ar    1  UNL1       -0.2276
     33 C         138.3141  141.2462  160.2821 C.ar    1  UNL1        0.1019
     34 C         137.9996  139.8077  160.5680 C.ar    1  UNL1        0.0413
     35 C         137.7921  139.3520  161.9819 C.ar    1  UNL1        0.1019
     36 N         137.8990  140.3349  163.1100 N.ar    1  UNL1       -0.2276
     37 C         141.1405  140.2552  169.8663 C.3     1  UNL1        0.1046
     38 C         139.6903  140.3110  170.2455 C.3     1  UNL1        0.1595
     39 C         139.8638  142.8854  170.5499 C.3     1  UNL1        0.1742
     40 O         139.0391  141.6326  170.5270 O.3     1  UNL1       -0.3496
@<TRIPOS>BOND
     1    39    40    1
     2    40    38    1
     3    38    37    1
     4    37     1    1
     5     1     2    1
     6     2     3    1
     7     3     4    1
     8     4     7    1
     9     7     8   am
    10     8     9    2
    11     8    11    1
    12    11    12   ar
    13    12    13   ar
    14    13    16    1
    15    16    17   ar
    16    17    18   ar
    17    18    19   ar
    18    19    20    1
    19    19    21   ar
    20    21    22   ar
    21    22    23    1
    22    13    14   ar
    23    14    15   ar
    24     4     5    1
    25     5    24    1
    26    24    25    2
    27    24    26   am
    28    26    28    1
    29    28    31    1
    30    31    32   ar
    31    32    33   ar
    32    33    34   ar
    33    34    35   ar
    34    35    36   ar
    35    28    29    1
    36    29    30    1
    37     5     6    1
    38     6     1    1
    39    15    11   ar
    40    30    28    1
    41    22    16   ar
    42    36    31   ar
    43     7    10    1
    44    26    27    1
@<TRIPOS>MOLECULE
*****
 40 44 0 0 0
SMALL
GASTEIGER

@<TRIPOS>ATOM
      1 N         142.3127  140.1405  167.4894 N.3     1  UNL1       -0.2700
      2 C         142.9797  138.9303  166.9060 C.3     1  UNL1        0.0739
      3 C         142.8647  138.6450  165.4379 C.3     1  UNL1        0.0374
      4 C         142.0828  139.5701  164.5531 C.3     1  UNL1        0.0832
      5 C         141.4158  140.7803  165.1365 C.3     1  UNL1        0.1103
      6 C         141.5307  141.0655  166.6047 C.3     1  UNL1        0.0829
      7 N         141.9678  139.2848  163.0850 N.am    1  UNL1       -0.3006
      8 C         143.1466  139.5043  162.1838 C.2     1  UNL1        0.2669
      9 O         144.4405  140.0090  162.7507 O.2     1  UNL1       -0.2684
     10 H         141.1187  138.9536  162.7129 H       1  UNL1        0.1497
     11 C         143.0317  139.2191  160.7156 C.ar    1  UNL1        0.1761
     12 C         141.7795  138.8257  159.9893 C.ar    1  UNL1        0.0673
     13 C         142.1227  138.6407  158.5408 C.ar    1  UNL1        0.1792
     14 O         143.5868  138.9197  158.3719 O.2     1  UNL1       -0.3532
     15 N         144.1486  139.2772  159.7161 N.ar    1  UNL1       -0.0723
     16 C         141.1691  138.2459  157.4523 C.ar    1  UNL1        0.0648
     17 C         140.0519  139.1680  157.0632 C.ar    1  UNL1        0.0077
     18 C         139.0983  138.7733  155.9747 C.ar    1  UNL1        0.0299
     19 C         139.2619  137.4564  155.2753 C.ar    1  UNL1        0.1424
     20 F         138.3082  137.0618  154.1869 F       1  UNL1       -0.2041
     21 C         140.3792  136.5343  155.6644 C.ar    1  UNL1        0.0593
     22 C         141.3328  136.9290  156.7529 C.ar    1  UNL1        0.1453
     23 F         142.4500  136.0069  157.1420 F       1  UNL1       -0.2040
     24 C         140.6338  141.7054  164.2517 C.2     1  UNL1        0.2252
     25 O         141.3260  142.4552  163.1523 O.2     1  UNL1       -0.2750
     26 N         139.1596  141.8807  164.4664 N.am    1  UNL1       -0.3010
     27 H         138.7053  141.3886  165.1880 H       1  UNL1        0.1497
     28 C         138.3776  142.8058  163.5816 C.3     1  UNL1        0.1089
     29 C         137.6454  144.0308  163.1200 C.3     1  UNL1        0.0274
     30 C         138.2494  143.9907  164.4925 C.3     1  UNL1        0.0274
     31 C         138.2344  141.9421  162.3637 C.ar    1  UNL1        0.1549
     32 N         138.5785  142.4907  161.0107 N.ar    1  UNL1       -0.2276
     33 C         138.4352  141.6270  159.7926 C.ar    1  UNL1        0.1019
     34 C         137.9479  140.2148  159.9276 C.ar    1  UNL1        0.0413
     35 C         137.6038  139.6663  161.2806 C.ar    1  UNL1        0.1019
     36 N         137.7471  140.5299  162.4987 N.ar    1  UNL1       -0.2276
     37 C         142.4276  140.4257  168.9575 C.3     1  UNL1        0.1046
     38 C         141.7846  139.5060  169.9528 C.3     1  UNL1        0.1595
     39 C         139.5296  140.7948  169.8876 C.3     1  UNL1        0.1742
     40 O         140.2974  139.5325  170.1468 O.3     1  UNL1       -0.3496
@<TRIPOS>BOND
     1    39    40    1
     2    40    38    1
     3    38    37    1
     4    37     1    1
     5     1     2    1
     6     2     3    1
     7     3     4    1
     8     4     7    1
     9     7     8   am
    10     8     9    2
    11     8    11    1
    12    11    12   ar
    13    12    13   ar
    14    13    16    1
    15    16    17   ar
    16    17    18   ar
    17    18    19   ar
    18    19    20    1
    19    19    21   ar
    20    21    22   ar
    21    22    23    1
    22    13    14   ar
    23    14    15   ar
    24     4     5    1
    25     5    24    1
    26    24    25    2
    27    24    26   am
    28    26    28    1
    29    28    31    1
    30    31    32   ar
    31    32    33   ar
    32    33    34   ar
    33    34    35   ar
    34    35    36   ar
    35    28    29    1
    36    29    30    1
    37     5     6    1
    38     6     1    1
    39    15    11   ar
    40    30    28    1
    41    22    16   ar
    42    36    31   ar
    43     7    10    1
    44    26    27    1
@<TRIPOS>MOLECULE
*****
 40 44 0 0 0
SMALL
GASTEIGER

@<TRIPOS>ATOM
      1 N         140.7840  144.3838  158.0977 N.3     1  UNL1       -0.2700
      2 C         140.7080  145.4577  159.1421 C.3     1  UNL1        0.0739
      3 C         140.8793  145.1085  160.5908 C.3     1  UNL1        0.0374
      4 C         141.1267  143.6854  160.9951 C.3     1  UNL1        0.0832
      5 C         141.2027  142.6115  159.9506 C.3     1  UNL1        0.1103
      6 C         141.0314  142.9607  158.5020 C.3     1  UNL1        0.0829
      7 N         141.2981  143.3362  162.4437 N.am    1  UNL1       -0.3006
      8 C         142.6599  143.3841  163.0708 C.2     1  UNL1        0.2669
      9 O         143.8504  143.7811  162.2491 O.2     1  UNL1       -0.2684
     10 H         140.5167  143.0756  162.9830 H       1  UNL1        0.1497
     11 C         142.8312  143.0349  164.5195 C.ar    1  UNL1        0.1761
     12 C         141.8335  142.3136  165.3765 C.ar    1  UNL1        0.0673
     13 C         142.4161  142.1786  166.7522 C.ar    1  UNL1        0.1792
     14 O         143.7737  142.8164  166.7454 O.2     1  UNL1       -0.3532
     15 N         144.0303  143.3456  165.3654 N.ar    1  UNL1       -0.0723
     16 C         141.7567  141.5212  167.9282 C.ar    1  UNL1        0.0648
     17 C         142.2532  140.1946  168.4216 C.ar    1  UNL1        0.0077
     18 C         141.5939  139.5372  169.5976 C.ar    1  UNL1        0.0299
     19 C         140.4379  140.2064  170.2803 C.ar    1  UNL1        0.1424
     20 F         139.7786  139.5489  171.4563 F       1  UNL1       -0.2041
     21 C         139.9414  141.5331  169.7869 C.ar    1  UNL1        0.0593
     22 C         140.6008  142.1905  168.6109 C.ar    1  UNL1        0.1453
     23 F         140.1043  143.5171  168.1175 F       1  UNL1       -0.2040
     24 C         141.4502  141.1883  160.3549 C.2     1  UNL1        0.2252
     25 O         140.4053  140.4343  161.1229 O.2     1  UNL1       -0.2750
     26 N         142.7424  140.5191  159.9911 N.am    1  UNL1       -0.3010
     27 H         143.4281  141.0140  159.4871 H       1  UNL1        0.1497
     28 C         142.9898  139.0959  160.3954 C.3     1  UNL1        0.1089
     29 C         143.0694  137.6004  160.3117 C.3     1  UNL1        0.0274
     30 C         142.5928  138.3933  159.1310 C.3     1  UNL1        0.0274
     31 C         143.4726  139.3044  161.8001 C.ar    1  UNL1        0.1549
     32 N         144.5926  140.2640  162.0735 N.ar    1  UNL1       -0.2276
     33 C         145.0755  140.4726  163.4783 C.ar    1  UNL1        0.1019
     34 C         144.4385  139.7215  164.6096 C.ar    1  UNL1        0.0413
     35 C         143.3186  138.7618  164.3363 C.ar    1  UNL1        0.1019
     36 N         142.8356  138.5533  162.9315 N.ar    1  UNL1       -0.2276
     37 C         140.6126  144.7330  156.6490 C.3     1  UNL1        0.1046
     38 C         139.2493  144.6952  156.0246 C.3     1  UNL1        0.1595
     39 C         139.2395  147.2878  155.8562 C.3     1  UNL1        0.1742
     40 O         138.5267  145.9746  155.7231 O.3     1  UNL1       -0.3496
@<TRIPOS>BOND
     1    39    40    1
     2    40    38    1
     3    38    37    1
     4    37     1    1
     5     1     2    1
     6     2     3    1
     7     3     4    1
     8     4     7    1
     9     7     8   am
    10     8     9    2
    11     8    11    1
    12    11    12   ar
    13    12    13   ar
    14    13    16    1
    15    16    17   ar
    16    17    18   ar
    17    18    19   ar
    18    19    20    1
    19    19    21   ar
    20    21    22   ar
    21    22    23    1
    22    13    14   ar
    23    14    15   ar
    24     4     5    1
    25     5    24    1
    26    24    25    2
    27    24    26   am
    28    26    28    1
    29    28    31    1
    30    31    32   ar
    31    32    33   ar
    32    33    34   ar
    33    34    35   ar
    34    35    36   ar
    35    28    29    1
    36    29    30    1
    37     5     6    1
    38     6     1    1
    39    15    11   ar
    40    30    28    1
    41    22    16   ar
    42    36    31   ar
    43     7    10    1
    44    26    27    1
@<TRIPOS>MOLECULE
*****
 40 44 0 0 0
SMALL
GASTEIGER

@<TRIPOS>ATOM
      1 N         142.7340  138.9009  158.2296 N.3     1  UNL1       -0.2700
      2 C         142.6944  137.6849  159.1069 C.3     1  UNL1        0.0739
      3 C         142.4499  137.8303  160.5797 C.3     1  UNL1        0.0374
      4 C         142.2450  139.1917  161.1751 C.3     1  UNL1        0.0832
      5 C         142.2845  140.4077  160.2978 C.3     1  UNL1        0.1103
      6 C         142.5290  140.2623  158.8250 C.3     1  UNL1        0.0829
      7 N         142.0004  139.3370  162.6479 N.am    1  UNL1       -0.3006
      8 C         143.1361  139.1829  163.6156 C.2     1  UNL1        0.2669
      9 O         144.5165  138.8833  163.1104 O.2     1  UNL1       -0.2684
     10 H         141.0945  139.5336  162.9794 H       1  UNL1        0.1497
     11 C         142.8916  139.3282  165.0883 C.ar    1  UNL1        0.1761
     12 C         142.0200  140.3608  165.7397 C.ar    1  UNL1        0.0673
     13 C         142.0655  140.1372  167.2223 C.ar    1  UNL1        0.1792
     14 O         142.9651  138.9666  167.4872 O.2     1  UNL1       -0.3532
     15 N         143.4757  138.4666  166.1683 N.ar    1  UNL1       -0.0723
     16 C         141.3389  140.9430  168.2581 C.ar    1  UNL1        0.0648
     17 C         140.0817  140.4087  168.8778 C.ar    1  UNL1        0.0077
     18 C         139.3550  141.2144  169.9135 C.ar    1  UNL1        0.0299
     19 C         139.8856  142.5544  170.3296 C.ar    1  UNL1        0.1424
     20 F         139.1588  143.3600  171.3654 F       1  UNL1       -0.2041
     21 C         141.1428  143.0886  169.7099 C.ar    1  UNL1        0.0593
     22 C         141.8694  142.2829  168.6741 C.ar    1  UNL1        0.1453
     23 F         143.1266  142.8171  168.0544 F       1  UNL1       -0.2040
     24 C         142.0795  141.7691  160.8933 C.2     1  UNL1        0.2252
     25 O         143.1430  142.3769  161.7591 O.2     1  UNL1       -0.2750
     26 N         140.8111  142.5228  160.6229 N.am    1  UNL1       -0.3010
     27 H         140.1132  142.1239  160.0546 H       1  UNL1        0.1497
     28 C         140.6062  143.8842  161.2184 C.3     1  UNL1        0.1089
     29 C         140.5466  145.3787  161.3315 C.3     1  UNL1        0.0274
     30 C         140.9536  144.7402  160.0366 C.3     1  UNL1        0.0274
     31 C         140.1876  143.5009  162.6068 C.ar    1  UNL1        0.1549
     32 N         140.9425  144.0292  163.7904 N.ar    1  UNL1       -0.2276
     33 C         140.5240  143.6459  165.1789 C.ar    1  UNL1        0.1019
     34 C         139.3506  142.7343  165.3838 C.ar    1  UNL1        0.0413
     35 C         138.5957  142.2059  164.2002 C.ar    1  UNL1        0.1019
     36 N         139.0142  142.5893  162.8117 N.ar    1  UNL1       -0.2276
     37 C         142.9785  138.7556  156.7568 C.3     1  UNL1        0.1046
     38 C         143.8044  139.7748  156.0295 C.3     1  UNL1        0.1595
     39 C         146.1357  140.8441  155.6148 C.3     1  UNL1        0.1742
     40 O         145.3009  139.6717  156.0374 O.3     1  UNL1       -0.3496
@<TRIPOS>BOND
     1    39    40    1
     2    40    38    1
     3    38    37    1
     4    37     1    1
     5     1     2    1
     6     2     3    1
     7     3     4    1
     8     4     7    1
     9     7     8   am
    10     8     9    2
    11     8    11    1
    12    11    12   ar
    13    12    13   ar
    14    13    16    1
    15    16    17   ar
    16    17    18   ar
    17    18    19   ar
    18    19    20    1
    19    19    21   ar
    20    21    22   ar
    21    22    23    1
    22    13    14   ar
    23    14    15   ar
    24     4     5    1
    25     5    24    1
    26    24    25    2
    27    24    26   am
    28    26    28    1
    29    28    31    1
    30    31    32   ar
    31    32    33   ar
    32    33    34   ar
    33    34    35   ar
    34    35    36   ar
    35    28    29    1
    36    29    30    1
    37     5     6    1
    38     6     1    1
    39    15    11   ar
    40    30    28    1
    41    22    16   ar
    42    36    31   ar
    43     7    10    1
    44    26    27    1
@<TRIPOS>MOLECULE
*****
 40 44 0 0 0
SMALL
GASTEIGER

@<TRIPOS>ATOM
      1 N         142.8911  138.3250  158.3048 N.3     1  UNL1       -0.2700
      2 C         142.9545  137.5460  159.5849 C.3     1  UNL1        0.0739
      3 C         142.8729  138.2594  160.9019 C.3     1  UNL1        0.0374
      4 C         142.7280  139.7519  160.9387 C.3     1  UNL1        0.0832
      5 C         142.6647  140.5310  159.6585 C.3     1  UNL1        0.1103
      6 C         142.7462  139.8175  158.3415 C.3     1  UNL1        0.0829
      7 N         142.6465  140.4653  162.2557 N.am    1  UNL1       -0.3006
      8 C         143.8874  141.0308  162.8804 C.2     1  UNL1        0.2669
      9 O         145.2099  140.8830  162.1881 O.2     1  UNL1       -0.2684
     10 H         141.7785  140.5623  162.7100 H       1  UNL1        0.1497
     11 C         143.8058  141.7442  164.1973 C.ar    1  UNL1        0.1761
     12 C         142.9272  141.3651  165.3525 C.ar    1  UNL1        0.0673
     13 C         143.1670  142.3486  166.4595 C.ar    1  UNL1        0.1792
     14 O         144.1938  143.3354  165.9885 O.2     1  UNL1       -0.3532
     15 N         144.5886  142.9619  164.5904 N.ar    1  UNL1       -0.0723
     16 C         142.4974  142.3457  167.8018 C.ar    1  UNL1        0.0648
     17 C         143.3176  142.1954  169.0486 C.ar    1  UNL1        0.0077
     18 C         142.6481  142.1925  170.3909 C.ar    1  UNL1        0.0299
     19 C         141.1584  142.3398  170.4863 C.ar    1  UNL1        0.1424
     20 F         140.4890  142.3369  171.8287 F       1  UNL1       -0.2041
     21 C         140.3382  142.4902  169.2395 C.ar    1  UNL1        0.0593
     22 C         141.0077  142.4931  167.8972 C.ar    1  UNL1        0.1453
     23 F         140.1875  142.6434  166.6503 F       1  UNL1       -0.2040
     24 C         142.5198  142.0235  159.6952 C.2     1  UNL1        0.2252
     25 O         143.7352  142.8919  159.8327 O.2     1  UNL1       -0.2750
     26 N         141.1596  142.6477  159.5945 N.am    1  UNL1       -0.3010
     27 H         140.3619  142.0778  159.5042 H       1  UNL1        0.1497
     28 C         141.0147  144.1403  159.6312 C.3     1  UNL1        0.1089
     29 C         140.9780  145.5648  159.1628 C.3     1  UNL1        0.0274
     30 C         141.2759  144.4628  158.1898 C.3     1  UNL1        0.0274
     31 C         140.7032  144.3360  161.0854 C.ar    1  UNL1        0.1549
     32 N         139.2770  144.4245  161.5415 N.ar    1  UNL1       -0.2276
     33 C         138.9655  144.6202  162.9957 C.ar    1  UNL1        0.1019
     34 C         140.0801  144.7274  163.9937 C.ar    1  UNL1        0.0413
     35 C         141.5063  144.6390  163.5376 C.ar    1  UNL1        0.1019
     36 N         141.8178  144.4433  162.0834 N.ar    1  UNL1       -0.2276
     37 C         142.9726  137.6116  156.9878 C.3     1  UNL1        0.1046
     38 C         143.5474  138.3097  155.7910 C.3     1  UNL1        0.1595
     39 C         145.5214  139.9819  155.5516 C.3     1  UNL1        0.1742
     40 O         145.0214  138.5771  155.7149 O.3     1  UNL1       -0.3496
@<TRIPOS>BOND
     1    39    40    1
     2    40    38    1
     3    38    37    1
     4    37     1    1
     5     1     2    1
     6     2     3    1
     7     3     4    1
     8     4     7    1
     9     7     8   am
    10     8     9    2
    11     8    11    1
    12    11    12   ar
    13    12    13   ar
    14    13    16    1
    15    16    17   ar
    16    17    18   ar
    17    18    19   ar
    18    19    20    1
    19    19    21   ar
    20    21    22   ar
    21    22    23    1
    22    13    14   ar
    23    14    15   ar
    24     4     5    1
    25     5    24    1
    26    24    25    2
    27    24    26   am
    28    26    28    1
    29    28    31    1
    30    31    32   ar
    31    32    33   ar
    32    33    34   ar
    33    34    35   ar
    34    35    36   ar
    35    28    29    1
    36    29    30    1
    37     5     6    1
    38     6     1    1
    39    15    11   ar
    40    30    28    1
    41    22    16   ar
    42    36    31   ar
    43     7    10    1
    44    26    27    1
@<TRIPOS>MOLECULE
*****
 40 44 0 0 0
SMALL
GASTEIGER

@<TRIPOS>ATOM
      1 N         142.0565  138.2335  157.8225 N.3     1  UNL1       -0.2700
      2 C         142.7843  137.2951  158.7389 C.3     1  UNL1        0.0739
      3 C         142.9498  137.6408  160.1891 C.3     1  UNL1        0.0374
      4 C         142.3875  138.9248  160.7229 C.3     1  UNL1        0.0832
      5 C         141.6597  139.8632  159.8066 C.3     1  UNL1        0.1103
      6 C         141.4942  139.5175  158.3564 C.3     1  UNL1        0.0829
      7 N         142.5530  139.2705  162.1731 N.am    1  UNL1       -0.3006
      8 C         141.7166  138.5797  163.2090 C.2     1  UNL1        0.2669
      9 O         140.7147  137.5431  162.7947 O.2     1  UNL1       -0.2684
     10 H         143.2106  139.9508  162.4450 H       1  UNL1        0.1497
     11 C         141.8822  138.9253  164.6592 C.ar    1  UNL1        0.1761
     12 C         141.0325  139.8842  165.4396 C.ar    1  UNL1        0.0673
     13 C         141.5517  139.9243  166.8464 C.ar    1  UNL1        0.1792
     14 O         142.7221  138.9903  166.9354 O.2     1  UNL1       -0.3532
     15 N         142.9263  138.3730  165.5837 N.ar    1  UNL1       -0.0723
     16 C         140.9976  140.7529  167.9673 C.ar    1  UNL1        0.0648
     17 C         139.8687  140.2258  168.8025 C.ar    1  UNL1        0.0077
     18 C         139.3146  141.0544  169.9234 C.ar    1  UNL1        0.0299
     19 C         139.8895  142.4101  170.2090 C.ar    1  UNL1        0.1424
     20 F         139.3354  143.2387  171.3300 F       1  UNL1       -0.2041
     21 C         141.0185  142.9372  169.3738 C.ar    1  UNL1        0.0593
     22 C         141.5725  142.1086  168.2529 C.ar    1  UNL1        0.1453
     23 F         142.7015  142.6357  167.4177 F       1  UNL1       -0.2040
     24 C         141.0974  141.1473  160.3404 C.2     1  UNL1        0.2252
     25 O         140.0023  141.1179  161.3650 O.2     1  UNL1       -0.2750
     26 N         141.6302  142.4607  159.8496 N.am    1  UNL1       -0.3010
     27 H         142.3489  142.4800  159.1771 H       1  UNL1        0.1497
     28 C         141.0679  143.7449  160.3835 C.3     1  UNL1        0.1089
     29 C         140.2224  144.9799  160.4827 C.3     1  UNL1        0.0274
     30 C         140.0573  144.0495  159.3177 C.3     1  UNL1        0.0274
     31 C         141.8832  143.8860  161.6345 C.ar    1  UNL1        0.1549
     32 N         141.2089  143.8750  162.9744 N.ar    1  UNL1       -0.2276
     33 C         142.0242  144.0161  164.2255 C.ar    1  UNL1        0.1019
     34 C         143.5138  144.1683  164.1369 C.ar    1  UNL1        0.0413
     35 C         144.1881  144.1794  162.7970 C.ar    1  UNL1        0.1019
     36 N         143.3728  144.0382  161.5459 N.ar    1  UNL1       -0.2276
     37 C         141.8909  137.8878  156.3723 C.3     1  UNL1        0.1046
     38 C         142.5830  136.6842  155.8045 C.3     1  UNL1        0.1595
     39 C         142.7795  134.1695  156.4271 C.3     1  UNL1        0.1742
     40 O         141.9590  135.3269  155.9398 O.3     1  UNL1       -0.3496
@<TRIPOS>BOND
     1    39    40    1
     2    40    38    1
     3    38    37    1
     4    37     1    1
     5     1     2    1
     6     2     3    1
     7     3     4    1
     8     4     7    1
     9     7     8   am
    10     8     9    2
    11     8    11    1
    12    11    12   ar
    13    12    13   ar
    14    13    16    1
    15    16    17   ar
    16    17    18   ar
    17    18    19   ar
    18    19    20    1
    19    19    21   ar
    20    21    22   ar
    21    22    23    1
    22    13    14   ar
    23    14    15   ar
    24     4     5    1
    25     5    24    1
    26    24    25    2
    27    24    26   am
    28    26    28    1
    29    28    31    1
    30    31    32   ar
    31    32    33   ar
    32    33    34   ar
    33    34    35   ar
    34    35    36   ar
    35    28    29    1
    36    29    30    1
    37     5     6    1
    38     6     1    1
    39    15    11   ar
    40    30    28    1
    41    22    16   ar
    42    36    31   ar
    43     7    10    1
    44    26    27    1
@<TRIPOS>MOLECULE
*****
 40 44 0 0 0
SMALL
GASTEIGER

@<TRIPOS>ATOM
      1 N         140.9324  140.3853  168.8488 N.3     1  UNL1       -0.2700
      2 C         142.1550  139.5554  168.5905 C.3     1  UNL1        0.0739
      3 C         142.7655  139.5256  167.2207 C.3     1  UNL1        0.0374
      4 C         142.1535  140.3257  166.1092 C.3     1  UNL1        0.0832
      5 C         140.9310  141.1555  166.3676 C.3     1  UNL1        0.1103
      6 C         140.3205  141.1853  167.7374 C.3     1  UNL1        0.0829
      7 N         142.7640  140.2959  164.7394 N.am    1  UNL1       -0.3006
      8 C         142.3864  139.2123  163.7734 C.2     1  UNL1        0.2669
      9 O         141.3981  138.1585  164.1771 O.2     1  UNL1       -0.2684
     10 H         143.4126  140.9875  164.4744 H       1  UNL1        0.1497
     11 C         142.9969  139.1825  162.4036 C.ar    1  UNL1        0.1761
     12 C         142.7748  140.1927  161.3171 C.ar    1  UNL1        0.0673
     13 C         143.5774  139.7718  160.1218 C.ar    1  UNL1        0.1792
     14 O         144.2955  138.5016  160.4695 O.2     1  UNL1       -0.3532
     15 N         143.9367  138.1374  161.8797 N.ar    1  UNL1       -0.0723
     16 C         143.6493  140.4943  158.8093 C.ar    1  UNL1        0.0648
     17 C         143.9637  141.9606  158.7766 C.ar    1  UNL1        0.0077
     18 C         144.0355  142.6832  157.4641 C.ar    1  UNL1        0.0299
     19 C         143.7930  141.9394  156.1842 C.ar    1  UNL1        0.1424
     20 F         143.8648  142.6621  154.8717 F       1  UNL1       -0.2041
     21 C         143.4786  140.4731  156.2169 C.ar    1  UNL1        0.0593
     22 C         143.4067  139.7506  157.5294 C.ar    1  UNL1        0.1453
     23 F         143.0923  138.2843  157.5621 F       1  UNL1       -0.2040
     24 C         140.3189  141.9556  165.2561 C.2     1  UNL1        0.2252
     25 O         141.1987  142.6456  164.2561 O.2     1  UNL1       -0.2750
     26 N         138.8272  142.0657  165.1446 N.am    1  UNL1       -0.3010
     27 H         138.2498  141.6128  165.8009 H       1  UNL1        0.1497
     28 C         138.2151  142.8658  164.0331 C.3     1  UNL1        0.1089
     29 C         137.6163  144.0273  163.2967 C.3     1  UNL1        0.0274
     30 C         138.0406  144.1842  164.7269 C.3     1  UNL1        0.0274
     31 C         138.1772  141.8252  162.9535 C.ar    1  UNL1        0.1549
     32 N         138.4064  142.2186  161.5243 N.ar    1  UNL1       -0.2276
     33 C         138.3685  141.1780  160.4446 C.ar    1  UNL1        0.1019
     34 C         138.1013  139.7440  160.7941 C.ar    1  UNL1        0.0413
     35 C         137.8720  139.3506  162.2233 C.ar    1  UNL1        0.1019
     36 N         137.9100  140.3912  163.3030 N.ar    1  UNL1       -0.2276
     37 C         140.3219  140.4151  170.2186 C.3     1  UNL1        0.1046
     38 C         140.9906  141.1811  171.3213 C.3     1  UNL1        0.1595
     39 C         142.6871  142.9537  170.4670 C.3     1  UNL1        0.1742
     40 O         141.3755  142.6156  171.1116 O.3     1  UNL1       -0.3496
@<TRIPOS>BOND
     1    39    40    1
     2    40    38    1
     3    38    37    1
     4    37     1    1
     5     1     2    1
     6     2     3    1
     7     3     4    1
     8     4     7    1
     9     7     8   am
    10     8     9    2
    11     8    11    1
    12    11    12   ar
    13    12    13   ar
    14    13    16    1
    15    16    17   ar
    16    17    18   ar
    17    18    19   ar
    18    19    20    1
    19    19    21   ar
    20    21    22   ar
    21    22    23    1
    22    13    14   ar
    23    14    15   ar
    24     4     5    1
    25     5    24    1
    26    24    25    2
    27    24    26   am
    28    26    28    1
    29    28    31    1
    30    31    32   ar
    31    32    33   ar
    32    33    34   ar
    33    34    35   ar
    34    35    36   ar
    35    28    29    1
    36    29    30    1
    37     5     6    1
    38     6     1    1
    39    15    11   ar
    40    30    28    1
    41    22    16   ar
    42    36    31   ar
    43     7    10    1
    44    26    27    1
@<TRIPOS>MOLECULE
*****
 40 44 0 0 0
SMALL
GASTEIGER

@<TRIPOS>ATOM
      1 N         142.5628  139.3142  157.9753 N.3     1  UNL1       -0.2700
      2 C         142.5019  138.1044  158.8600 C.3     1  UNL1        0.0739
      3 C         142.1526  138.2532  160.3111 C.3     1  UNL1        0.0374
      4 C         141.8643  139.6118  160.8776 C.3     1  UNL1        0.0832
      5 C         141.9252  140.8216  159.9930 C.3     1  UNL1        0.1103
      6 C         142.2744  140.6728  158.5418 C.3     1  UNL1        0.0829
      7 N         141.5150  139.7607  162.3288 N.am    1  UNL1       -0.3006
      8 C         140.0902  139.6186  162.7757 C.2     1  UNL1        0.2669
      9 O         139.0146  139.3278  161.7714 O.2     1  UNL1       -0.2684
     10 H         142.2210  139.9515  162.9879 H       1  UNL1        0.1497
     11 C         139.7410  139.7675  164.2269 C.ar    1  UNL1        0.1761
     12 C         140.6130  140.3745  165.2858 C.ar    1  UNL1        0.0673
     13 C         139.8693  140.3176  166.5873 C.ar    1  UNL1        0.1792
     14 O         138.5378  139.6754  166.3327 O.2     1  UNL1       -0.3532
     15 N         138.4585  139.3355  164.8739 N.ar    1  UNL1       -0.0723
     16 C         140.3694  140.8154  167.9110 C.ar    1  UNL1        0.0648
     17 C         140.6506  139.8450  169.0196 C.ar    1  UNL1        0.0077
     18 C         141.1507  140.3428  170.3432 C.ar    1  UNL1        0.0299
     19 C         141.3696  141.8112  170.5582 C.ar    1  UNL1        0.1424
     20 F         141.8697  142.3089  171.8819 F       1  UNL1       -0.2041
     21 C         141.0884  142.7816  169.4496 C.ar    1  UNL1        0.0593
     22 C         140.5883  142.2837  168.1259 C.ar    1  UNL1        0.1453
     23 F         140.3071  143.2542  167.0173 F       1  UNL1       -0.2040
     24 C         141.6368  142.1803  160.5595 C.2     1  UNL1        0.2252
     25 O         142.5462  142.7686  161.5973 O.2     1  UNL1       -0.2750
     26 N         140.4392  142.9507  160.0882 N.am    1  UNL1       -0.3010
     27 H         139.8423  142.5645  159.4071 H       1  UNL1        0.1497
     28 C         140.1508  144.3094  160.6547 C.3     1  UNL1        0.1089
     29 C         140.1336  145.8025  160.7970 C.3     1  UNL1        0.0274
     30 C         140.8312  145.1683  159.6304 C.3     1  UNL1        0.0274
     31 C         139.3704  143.9222  161.8757 C.ar    1  UNL1        0.1549
     32 N         139.6363  144.6063  163.1839 N.ar    1  UNL1       -0.2276
     33 C         138.8558  144.2191  164.4050 C.ar    1  UNL1        0.1019
     34 C         137.8095  143.1479  164.3179 C.ar    1  UNL1        0.0413
     35 C         137.5436  142.4638  163.0097 C.ar    1  UNL1        0.1019
     36 N         138.3240  142.8509  161.7886 N.ar    1  UNL1       -0.2276
     37 C         142.9120  139.1653  156.5242 C.3     1  UNL1        0.1046
     38 C         142.8874  137.8100  155.8820 C.3     1  UNL1        0.1595
     39 C         143.9844  135.4857  155.5019 C.3     1  UNL1        0.1742
     40 O         144.0578  136.8849  156.0378 O.3     1  UNL1       -0.3496
@<TRIPOS>BOND
     1    39    40    1
     2    40    38    1
     3    38    37    1
     4    37     1    1
     5     1     2    1
     6     2     3    1
     7     3     4    1
     8     4     7    1
     9     7     8   am
    10     8     9    2
    11     8    11    1
    12    11    12   ar
    13    12    13   ar
    14    13    16    1
    15    16    17   ar
    16    17    18   ar
    17    18    19   ar
    18    19    20    1
    19    19    21   ar
    20    21    22   ar
    21    22    23    1
    22    13    14   ar
    23    14    15   ar
    24     4     5    1
    25     5    24    1
    26    24    25    2
    27    24    26   am
    28    26    28    1
    29    28    31    1
    30    31    32   ar
    31    32    33   ar
    32    33    34   ar
    33    34    35   ar
    34    35    36   ar
    35    28    29    1
    36    29    30    1
    37     5     6    1
    38     6     1    1
    39    15    11   ar
    40    30    28    1
    41    22    16   ar
    42    36    31   ar
    43     7    10    1
    44    26    27    1
