@<TRIPOS>MOLECULE
*****
 36 40 0 0 0
SMALL
GASTEIGER

@<TRIPOS>ATOM
      1 N         142.3751  138.0665  162.3780 N.3     1  UNL1       -0.2680
      2 C         141.0059  137.9494  161.7765 C.3     1  UNL1        0.0897
      3 C         139.8077  137.7912  162.6648 C.3     1  UNL1        0.0897
      4 N         139.9785  137.7500  164.1545 N.3     1  UNL1       -0.2680
      5 C         141.3477  137.8670  164.7559 C.3     1  UNL1        0.0897
      6 C         142.5460  138.0253  163.8677 C.3     1  UNL1        0.0897
      7 C         143.5734  138.2248  161.4897 C.3     1  UNL1        0.1064
      8 C         143.9859  139.5893  161.0229 C.3     1  UNL1        0.1483
      9 O         144.2304  139.8409  159.5645 O.3     1  UNL1       -0.3786
     10 H         144.4875  140.7672  159.4348 H       1  UNL1        0.2108
     11 C         142.4807  142.1593  160.6624 C.3     1  UNL1        0.0306
     12 C         143.4012  141.9873  161.8342 C.ar    1  UNL1       -0.0238
     13 C         144.1539  140.7023  162.0145 C.ar    1  UNL1        0.0015
     14 C         145.0744  140.5303  163.1862 C.ar    1  UNL1       -0.0020
     15 C         145.2424  141.6432  164.1777 C.ar    1  UNL1        0.0060
     16 C         144.4898  142.9281  163.9975 C.ar    1  UNL1        0.0748
     17 C         143.5692  143.1002  162.8258 C.ar    1  UNL1        0.0233
     18 C         142.9638  144.4700  162.9092 C.3     1  UNL1        0.2352
     19 O         143.5101  145.1446  164.1325 O.3     1  UNL1       -0.4404
     20 C         144.4533  144.1917  164.8051 C.2     1  UNL1        0.3413
     21 O         145.2244  144.4559  166.0643 O.2     1  UNL1       -0.2449
     22 C         138.7802  137.5917  165.0427 C.3     1  UNL1        0.1064
     23 C         138.1604  138.7958  165.6878 C.3     1  UNL1        0.1483
     24 O         137.3786  138.6464  166.9592 O.3     1  UNL1       -0.3786
     25 H         137.3712  137.7140  167.2266 H       1  UNL1        0.2108
     26 C         138.3224  140.1490  165.0615 C.ar    1  UNL1        0.0015
     27 C         137.5575  140.4969  163.8189 C.ar    1  UNL1       -0.0020
     28 C         137.7196  141.8502  163.1926 C.ar    1  UNL1        0.0060
     29 C         138.6465  142.8557  163.8089 C.ar    1  UNL1        0.0748
     30 C         139.4113  142.5079  165.0515 C.ar    1  UNL1        0.0233
     31 C         139.2492  141.1545  165.6778 C.ar    1  UNL1       -0.0238
     32 C         140.0141  140.8067  166.9204 C.3     1  UNL1        0.0306
     33 C         140.2455  143.6956  165.4300 C.3     1  UNL1        0.2352
     34 O         139.9963  144.7775  164.4212 O.3     1  UNL1       -0.4404
     35 C         139.0080  144.2584  163.4194 C.2     1  UNL1        0.3413
     36 O         138.4749  145.0100  162.2359 O.2     1  UNL1       -0.2449
@<TRIPOS>BOND
     1    11    12    1
     2    12    13   ar
     3    13     8    1
     4     8     9    1
     5     8     7    1
     6     7     1    1
     7     1     2    1
     8     2     3    1
     9     3     4    1
    10     4    22    1
    11    22    23    1
    12    23    24    1
    13    23    26    1
    14    26    27   ar
    15    27    28   ar
    16    28    29   ar
    17    29    30   ar
    18    30    31   ar
    19    31    32    1
    20    30    33    1
    21    33    34    1
    22    34    35    1
    23    35    36    2
    24     4     5    1
    25     5     6    1
    26    13    14   ar
    27    14    15   ar
    28    15    16   ar
    29    16    17   ar
    30    17    18    1
    31    18    19    1
    32    19    20    1
    33    20    21    2
    34    17    12   ar
    35     6     1    1
    36    20    16    1
    37    31    26   ar
    38    35    29    1
    39     9    10    1
    40    24    25    1
@<TRIPOS>MOLECULE
*****
 36 40 0 0 0
SMALL
GASTEIGER

@<TRIPOS>ATOM
      1 N         143.4862  139.2459  163.2497 N.3     1  UNL1       -0.2680
      2 C         142.4243  138.7472  162.3150 C.3     1  UNL1        0.0897
      3 C         141.1417  138.1953  162.8631 C.3     1  UNL1        0.0897
      4 N         140.9210  138.1421  164.3458 N.3     1  UNL1       -0.2680
      5 C         141.9829  138.6407  165.2805 C.3     1  UNL1        0.0897
      6 C         143.2655  139.1927  164.7325 C.3     1  UNL1        0.0897
      7 C         144.7688  139.7978  162.7017 C.3     1  UNL1        0.1064
      8 C         145.0147  141.2774  162.7148 C.3     1  UNL1        0.1483
      9 O         146.3341  141.8143  163.1848 O.3     1  UNL1       -0.3786
     10 H         146.3273  142.7827  163.1298 H       1  UNL1        0.2108
     11 C         144.0922  143.4886  164.5203 C.3     1  UNL1        0.0306
     12 C         143.4799  143.3259  163.1606 C.ar    1  UNL1       -0.0238
     13 C         143.9412  142.2203  162.2578 C.ar    1  UNL1        0.0015
     14 C         143.3290  142.0575  160.8982 C.ar    1  UNL1       -0.0020
     15 C         142.2556  143.0003  160.4412 C.ar    1  UNL1        0.0060
     16 C         141.7943  144.1059  161.3440 C.ar    1  UNL1        0.0748
     17 C         142.4065  144.2687  162.7036 C.ar    1  UNL1        0.0233
     18 C         141.7529  145.4437  163.3686 C.3     1  UNL1        0.2352
     19 O         140.7368  146.0071  162.4199 O.3     1  UNL1       -0.4404
     20 C         140.7624  145.1803  161.1686 C.2     1  UNL1        0.3413
     21 O         139.9063  145.3910  159.9550 O.2     1  UNL1       -0.2449
     22 C         139.6384  137.5901  164.8938 C.3     1  UNL1        0.1064
     23 C         138.6275  138.5118  165.5092 C.3     1  UNL1        0.1483
     24 O         137.7724  138.0355  166.6458 O.3     1  UNL1       -0.3786
     25 H         137.9988  137.1164  166.8577 H       1  UNL1        0.2108
     26 C         138.4718  139.9096  164.9880 C.ar    1  UNL1        0.0015
     27 C         137.7437  140.1528  163.6992 C.ar    1  UNL1       -0.0020
     28 C         137.5880  141.5507  163.1781 C.ar    1  UNL1        0.0060
     29 C         138.1603  142.7054  163.9456 C.ar    1  UNL1        0.0748
     30 C         138.8884  142.4622  165.2343 C.ar    1  UNL1        0.0233
     31 C         139.0441  141.0643  165.7555 C.ar    1  UNL1       -0.0238
     32 C         139.7721  140.8211  167.0442 C.3     1  UNL1        0.0306
     33 C         139.3421  143.7887  165.7678 C.3     1  UNL1        0.2352
     34 O         138.8944  144.8517  164.8087 O.3     1  UNL1       -0.4404
     35 C         138.1641  144.1822  163.6826 C.2     1  UNL1        0.3413
     36 O         137.5460  144.8689  162.5009 O.2     1  UNL1       -0.2449
@<TRIPOS>BOND
     1    11    12    1
     2    12    13   ar
     3    13     8    1
     4     8     9    1
     5     8     7    1
     6     7     1    1
     7     1     2    1
     8     2     3    1
     9     3     4    1
    10     4    22    1
    11    22    23    1
    12    23    24    1
    13    23    26    1
    14    26    27   ar
    15    27    28   ar
    16    28    29   ar
    17    29    30   ar
    18    30    31   ar
    19    31    32    1
    20    30    33    1
    21    33    34    1
    22    34    35    1
    23    35    36    2
    24     4     5    1
    25     5     6    1
    26    13    14   ar
    27    14    15   ar
    28    15    16   ar
    29    16    17   ar
    30    17    18    1
    31    18    19    1
    32    19    20    1
    33    20    21    2
    34    17    12   ar
    35     6     1    1
    36    20    16    1
    37    31    26   ar
    38    35    29    1
    39     9    10    1
    40    24    25    1
@<TRIPOS>MOLECULE
*****
 36 40 0 0 0
SMALL
GASTEIGER

@<TRIPOS>ATOM
      1 N         139.8961  137.7393  164.1270 N.3     1  UNL1       -0.2680
      2 C         139.7258  137.8105  162.6384 C.3     1  UNL1        0.0897
      3 C         140.9279  137.9486  161.7519 C.3     1  UNL1        0.0897
      4 N         142.3002  138.0154  162.3540 N.3     1  UNL1       -0.2680
      5 C         142.4704  137.9442  163.8426 C.3     1  UNL1        0.0897
      6 C         141.2683  137.8062  164.7292 C.3     1  UNL1        0.0897
      7 C         138.6940  137.6012  165.0136 C.3     1  UNL1        0.1064
      8 C         138.1126  138.8113  165.6827 C.3     1  UNL1        0.1483
      9 O         137.3507  138.6651  166.9665 O.3     1  UNL1       -0.3786
     10 H         137.0454  139.5369  167.2623 H       1  UNL1        0.2108
     11 C         139.9328  140.8144  166.9769 C.3     1  UNL1        0.0306
     12 C         139.2033  141.1692  165.7151 C.ar    1  UNL1       -0.0238
     13 C         138.2932  140.1677  165.0680 C.ar    1  UNL1        0.0015
     14 C         137.5638  140.5224  163.8063 C.ar    1  UNL1       -0.0020
     15 C         137.7443  141.8787  163.1916 C.ar    1  UNL1        0.0060
     16 C         138.6543  142.8803  163.8387 C.ar    1  UNL1        0.0748
     17 C         139.3838  142.5255  165.1004 C.ar    1  UNL1        0.0233
     18 C         140.2081  143.7105  165.5082 C.3     1  UNL1        0.2352
     19 O         139.9880  144.7977  164.4984 O.3     1  UNL1       -0.4404
     20 C         139.0278  144.2846  163.4666 C.2     1  UNL1        0.3413
     21 O         138.5286  145.0427  162.2724 O.2     1  UNL1       -0.2449
     22 C         143.5022  138.1535  161.4674 C.3     1  UNL1        0.1064
     23 C         143.9469  139.5121  161.0128 C.3     1  UNL1        0.1483
     24 O         144.2098  139.7673  159.5582 O.3     1  UNL1       -0.3786
     25 H         144.0460  138.9558  159.0528 H       1  UNL1        0.2108
     26 C         144.1286  140.6153  162.0127 C.ar    1  UNL1        0.0015
     27 C         145.0905  140.4450  163.1510 C.ar    1  UNL1       -0.0020
     28 C         145.2721  141.5482  164.1508 C.ar    1  UNL1        0.0060
     29 C         144.4919  142.8218  164.0125 C.ar    1  UNL1        0.0748
     30 C         143.5300  142.9922  162.8742 C.ar    1  UNL1        0.0233
     31 C         143.3483  141.8889  161.8743 C.ar    1  UNL1       -0.0238
     32 C         142.3864  142.0592  160.7360 C.3     1  UNL1        0.0306
     33 C         142.9041  144.3499  162.9955 C.3     1  UNL1        0.2352
     34 O         143.4792  145.0187  164.2088 O.3     1  UNL1       -0.4404
     35 C         144.4605  144.0744  164.8373 C.2     1  UNL1        0.3413
     36 O         145.2685  144.3364  166.0736 O.2     1  UNL1       -0.2449
@<TRIPOS>BOND
     1    11    12    1
     2    12    13   ar
     3    13     8    1
     4     8     9    1
     5     8     7    1
     6     7     1    1
     7     1     2    1
     8     2     3    1
     9     3     4    1
    10     4    22    1
    11    22    23    1
    12    23    24    1
    13    23    26    1
    14    26    27   ar
    15    27    28   ar
    16    28    29   ar
    17    29    30   ar
    18    30    31   ar
    19    31    32    1
    20    30    33    1
    21    33    34    1
    22    34    35    1
    23    35    36    2
    24     4     5    1
    25     5     6    1
    26    13    14   ar
    27    14    15   ar
    28    15    16   ar
    29    16    17   ar
    30    17    18    1
    31    18    19    1
    32    19    20    1
    33    20    21    2
    34    17    12   ar
    35     6     1    1
    36    20    16    1
    37    31    26   ar
    38    35    29    1
    39     9    10    1
    40    24    25    1
@<TRIPOS>MOLECULE
*****
 36 40 0 0 0
SMALL
GASTEIGER

@<TRIPOS>ATOM
      1 N         138.6126  141.0745  163.6952 N.3     1  UNL1       -0.2680
      2 C         138.2459  142.5236  163.8210 C.3     1  UNL1        0.0897
      3 C         138.6513  143.4952  162.7526 C.3     1  UNL1        0.0897
      4 N         139.4233  143.0178  161.5584 N.3     1  UNL1       -0.2680
      5 C         139.7900  141.5688  161.4326 C.3     1  UNL1        0.0897
      6 C         139.3847  140.5971  162.5010 C.3     1  UNL1        0.0897
      7 C         138.2073  140.1028  164.7637 C.3     1  UNL1        0.1064
      8 C         139.2521  139.4515  165.6205 C.3     1  UNL1        0.1483
      9 O         139.8987  138.1738  165.1738 O.3     1  UNL1       -0.3786
     10 H         140.5460  137.8896  165.8380 H       1  UNL1        0.2108
     11 C         141.6216  141.2876  165.7406 C.3     1  UNL1        0.0306
     12 C         140.8351  140.9959  166.9841 C.ar    1  UNL1       -0.0238
     13 C         139.6503  140.0778  166.9241 C.ar    1  UNL1        0.0015
     14 C         138.8639  139.7861  168.1675 C.ar    1  UNL1       -0.0020
     15 C         139.2620  140.4123  169.4711 C.ar    1  UNL1        0.0060
     16 C         140.4467  141.3304  169.5311 C.ar    1  UNL1        0.0748
     17 C         141.2333  141.6222  168.2876 C.ar    1  UNL1        0.0233
     18 C         142.3455  142.5603  168.6521 C.3     1  UNL1        0.2352
     19 O         142.2463  142.8484  170.1208 O.3     1  UNL1       -0.4404
     20 C         141.0728  142.0882  170.6641 C.2     1  UNL1        0.3413
     21 O         140.6073  142.0863  172.0900 O.2     1  UNL1       -0.2449
     22 C         139.8285  143.9895  160.4900 C.3     1  UNL1        0.1064
     23 C         141.1476  144.6979  160.5815 C.3     1  UNL1        0.1483
     24 O         141.5493  145.6754  159.5170 O.3     1  UNL1       -0.3786
     25 H         140.8488  145.7314  158.8485 H       1  UNL1        0.2108
     26 C         142.0648  144.4288  161.7374 C.ar    1  UNL1        0.0015
     27 C         141.9345  145.2279  163.0001 C.ar    1  UNL1       -0.0020
     28 C         142.8518  144.9588  164.1560 C.ar    1  UNL1        0.0060
     29 C         143.8993  143.8905  164.0493 C.ar    1  UNL1        0.0748
     30 C         144.0296  143.0913  162.7866 C.ar    1  UNL1        0.0233
     31 C         143.1123  143.3605  161.6307 C.ar    1  UNL1       -0.0238
     32 C         143.2426  142.5614  160.3680 C.3     1  UNL1        0.0306
     33 C         145.1487  142.1100  162.9725 C.3     1  UNL1        0.2352
     34 O         145.7101  142.3027  164.3502 O.3     1  UNL1       -0.4404
     35 C         144.9379  143.4030  165.0156 C.2     1  UNL1        0.3413
     36 O         145.1645  143.9244  166.4037 O.2     1  UNL1       -0.2449
@<TRIPOS>BOND
     1    11    12    1
     2    12    13   ar
     3    13     8    1
     4     8     9    1
     5     8     7    1
     6     7     1    1
     7     1     2    1
     8     2     3    1
     9     3     4    1
    10     4    22    1
    11    22    23    1
    12    23    24    1
    13    23    26    1
    14    26    27   ar
    15    27    28   ar
    16    28    29   ar
    17    29    30   ar
    18    30    31   ar
    19    31    32    1
    20    30    33    1
    21    33    34    1
    22    34    35    1
    23    35    36    2
    24     4     5    1
    25     5     6    1
    26    13    14   ar
    27    14    15   ar
    28    15    16   ar
    29    16    17   ar
    30    17    18    1
    31    18    19    1
    32    19    20    1
    33    20    21    2
    34    17    12   ar
    35     6     1    1
    36    20    16    1
    37    31    26   ar
    38    35    29    1
    39     9    10    1
    40    24    25    1
@<TRIPOS>MOLECULE
*****
 36 40 0 0 0
SMALL
GASTEIGER

@<TRIPOS>ATOM
      1 N         139.4550  142.8994  161.4757 N.3     1  UNL1       -0.2680
      2 C         138.5757  143.3466  162.6057 C.3     1  UNL1        0.0897
      3 C         138.1649  142.3704  163.6678 C.3     1  UNL1        0.0897
      4 N         138.6334  140.9470  163.6000 N.3     1  UNL1       -0.2680
      5 C         139.5127  140.4998  162.4701 C.3     1  UNL1        0.0897
      6 C         139.9236  141.4760  161.4079 C.3     1  UNL1        0.0897
      7 C         139.8659  143.8756  160.4135 C.3     1  UNL1        0.1064
      8 C         141.1554  144.6302  160.5467 C.3     1  UNL1        0.1483
      9 O         141.5391  145.6477  159.5135 O.3     1  UNL1       -0.3786
     10 H         142.3945  146.0402  159.7483 H       1  UNL1        0.2108
     11 C         143.3223  142.5669  160.3278 C.3     1  UNL1        0.0306
     12 C         143.1447  143.3356  161.6037 C.ar    1  UNL1       -0.0238
     13 C         142.0612  144.3673  161.7131 C.ar    1  UNL1        0.0015
     14 C         141.8836  145.1360  162.9888 C.ar    1  UNL1       -0.0020
     15 C         142.7894  144.8731  164.1551 C.ar    1  UNL1        0.0060
     16 C         143.8729  143.8415  164.0458 C.ar    1  UNL1        0.0748
     17 C         144.0505  143.0728  162.7700 C.ar    1  UNL1        0.0233
     18 C         145.1977  142.1244  162.9561 C.3     1  UNL1        0.2352
     19 O         145.7290  142.3070  164.3469 O.3     1  UNL1       -0.4404
     20 C         144.9103  143.3682  165.0203 C.2     1  UNL1        0.3413
     21 O         145.0963  143.8683  166.4222 O.2     1  UNL1       -0.2449
     22 C         138.2226  139.9709  164.6622 C.3     1  UNL1        0.1064
     23 C         139.2603  139.3376  165.5409 C.3     1  UNL1        0.1483
     24 O         139.9124  138.0524  165.1249 O.3     1  UNL1       -0.3786
     25 H         139.5519  137.7689  164.2702 H       1  UNL1        0.2108
     26 C         139.6460  139.9896  166.8356 C.ar    1  UNL1        0.0015
     27 C         138.8604  139.7058  168.0815 C.ar    1  UNL1       -0.0020
     28 C         139.2461  140.3578  169.3761 C.ar    1  UNL1        0.0060
     29 C         140.4174  141.2935  169.4249 C.ar    1  UNL1        0.0748
     30 C         141.2030  141.5773  168.1790 C.ar    1  UNL1        0.0233
     31 C         140.8173  140.9253  166.8843 C.ar    1  UNL1       -0.0238
     32 C         141.6029  141.2091  165.6384 C.3     1  UNL1        0.0306
     33 C         142.3007  142.5368  168.5317 C.3     1  UNL1        0.2352
     34 O         142.1934  142.8461  169.9956 O.3     1  UNL1       -0.4404
     35 C         141.0296  142.0777  170.5476 C.2     1  UNL1        0.3413
     36 O         140.5602  142.0911  171.9722 O.2     1  UNL1       -0.2449
@<TRIPOS>BOND
     1    11    12    1
     2    12    13   ar
     3    13     8    1
     4     8     9    1
     5     8     7    1
     6     7     1    1
     7     1     2    1
     8     2     3    1
     9     3     4    1
    10     4    22    1
    11    22    23    1
    12    23    24    1
    13    23    26    1
    14    26    27   ar
    15    27    28   ar
    16    28    29   ar
    17    29    30   ar
    18    30    31   ar
    19    31    32    1
    20    30    33    1
    21    33    34    1
    22    34    35    1
    23    35    36    2
    24     4     5    1
    25     5     6    1
    26    13    14   ar
    27    14    15   ar
    28    15    16   ar
    29    16    17   ar
    30    17    18    1
    31    18    19    1
    32    19    20    1
    33    20    21    2
    34    17    12   ar
    35     6     1    1
    36    20    16    1
    37    31    26   ar
    38    35    29    1
    39     9    10    1
    40    24    25    1
@<TRIPOS>MOLECULE
*****
 36 40 0 0 0
SMALL
GASTEIGER

@<TRIPOS>ATOM
      1 N         141.4148  138.2051  164.4012 N.3     1  UNL1       -0.2680
      2 C         141.7540  138.7903  163.0623 C.3     1  UNL1        0.0897
      3 C         140.7043  138.8775  161.9944 C.3     1  UNL1        0.0897
      4 N         139.3155  138.3796  162.2653 N.3     1  UNL1       -0.2680
      5 C         138.9764  137.7945  163.6041 C.3     1  UNL1        0.0897
      6 C         140.0260  137.7072  164.6722 C.3     1  UNL1        0.0897
      7 C         142.4644  138.1178  165.4692 C.3     1  UNL1        0.1064
      8 C         143.0925  139.3691  166.0075 C.3     1  UNL1        0.1483
      9 O         144.3131  139.9392  165.3479 O.3     1  UNL1       -0.3786
     10 H         144.5888  140.7424  165.8169 H       1  UNL1        0.2108
     11 C         141.4521  141.8568  165.6598 C.3     1  UNL1        0.0306
     12 C         141.6798  141.2942  167.0316 C.ar    1  UNL1       -0.0238
     13 C         142.5000  140.0503  167.2055 C.ar    1  UNL1        0.0015
     14 C         142.7277  139.4877  168.5771 C.ar    1  UNL1       -0.0020
     15 C         142.1352  140.1689  169.7750 C.ar    1  UNL1        0.0060
     16 C         141.3150  141.4127  169.6012 C.ar    1  UNL1        0.0748
     17 C         141.0873  141.9754  168.2295 C.ar    1  UNL1        0.0233
     18 C         140.2413  143.2062  168.3679 C.3     1  UNL1        0.2352
     19 O         139.9461  143.4043  169.8251 O.3     1  UNL1       -0.4404
     20 C         140.6097  142.2958  170.5874 C.2     1  UNL1        0.3413
     21 O         140.5742  142.1042  172.0747 O.2     1  UNL1       -0.2449
     22 C         138.2659  138.4669  161.1972 C.3     1  UNL1        0.1064
     23 C         137.4458  139.7144  161.0517 C.3     1  UNL1        0.1483
     24 O         136.2988  139.7494  160.0858 O.3     1  UNL1       -0.3786
     25 H         136.2251  138.8910  159.6400 H       1  UNL1        0.2108
     26 C         137.7727  140.9269  161.8721 C.ar    1  UNL1        0.0015
     27 C         137.3302  141.0058  163.3031 C.ar    1  UNL1       -0.0020
     28 C         137.6572  142.2183  164.1235 C.ar    1  UNL1        0.0060
     29 C         138.4267  143.3518  163.5127 C.ar    1  UNL1        0.0748
     30 C         138.8692  143.2729  162.0817 C.ar    1  UNL1        0.0233
     31 C         138.5422  142.0604  161.2613 C.ar    1  UNL1       -0.0238
     32 C         138.9847  141.9815  159.8303 C.3     1  UNL1        0.0306
     33 C         139.6079  144.5367  161.7546 C.3     1  UNL1        0.2352
     34 O         139.6220  145.3967  162.9835 O.3     1  UNL1       -0.4404
     35 C         138.8920  144.6645  164.0701 C.2     1  UNL1        0.3413
     36 O         138.6667  145.1581  165.4685 O.2     1  UNL1       -0.2449
@<TRIPOS>BOND
     1    11    12    1
     2    12    13   ar
     3    13     8    1
     4     8     9    1
     5     8     7    1
     6     7     1    1
     7     1     2    1
     8     2     3    1
     9     3     4    1
    10     4    22    1
    11    22    23    1
    12    23    24    1
    13    23    26    1
    14    26    27   ar
    15    27    28   ar
    16    28    29   ar
    17    29    30   ar
    18    30    31   ar
    19    31    32    1
    20    30    33    1
    21    33    34    1
    22    34    35    1
    23    35    36    2
    24     4     5    1
    25     5     6    1
    26    13    14   ar
    27    14    15   ar
    28    15    16   ar
    29    16    17   ar
    30    17    18    1
    31    18    19    1
    32    19    20    1
    33    20    21    2
    34    17    12   ar
    35     6     1    1
    36    20    16    1
    37    31    26   ar
    38    35    29    1
    39     9    10    1
    40    24    25    1
@<TRIPOS>MOLECULE
*****
 36 40 0 0 0
SMALL
GASTEIGER

@<TRIPOS>ATOM
      1 N         138.6785  140.4248  161.9059 N.3     1  UNL1       -0.2680
      2 C         139.6747  140.3451  160.7873 C.3     1  UNL1        0.0897
      3 C         140.1197  141.5958  160.0890 C.3     1  UNL1        0.0897
      4 N         139.5685  142.9261  160.5091 N.3     1  UNL1       -0.2680
      5 C         138.5723  143.0057  161.6277 C.3     1  UNL1        0.0897
      6 C         138.1272  141.7551  162.3261 C.3     1  UNL1        0.0897
      7 C         138.2334  139.1741  162.6043 C.3     1  UNL1        0.1064
      8 C         139.1390  138.5062  163.5961 C.3     1  UNL1        0.1483
      9 O         140.0093  137.3628  163.1658 O.3     1  UNL1       -0.3786
     10 H         140.5281  137.0486  163.9228 H       1  UNL1        0.2108
     11 C         141.2394  140.4610  164.4723 C.3     1  UNL1        0.0306
     12 C         140.2246  139.9592  165.4565 C.ar    1  UNL1       -0.0238
     13 C         139.1744  138.9818  165.0184 C.ar    1  UNL1        0.0015
     14 C         138.1596  138.4800  166.0024 C.ar    1  UNL1       -0.0020
     15 C         138.1950  138.9556  167.4246 C.ar    1  UNL1        0.0060
     16 C         139.2451  139.9329  167.8627 C.ar    1  UNL1        0.0748
     17 C         140.2599  140.4347  166.8787 C.ar    1  UNL1        0.0233
     18 C         141.1696  141.3875  167.5960 C.3     1  UNL1        0.2352
     19 O         140.7170  141.4746  169.0234 O.3     1  UNL1       -0.4404
     20 C         139.5276  140.5756  169.1883 C.2     1  UNL1        0.3413
     21 O         138.7562  140.3576  170.4561 O.2     1  UNL1       -0.2449
     22 C         140.0136  144.1767  159.8107 C.3     1  UNL1        0.1064
     23 C         141.3214  144.8146  160.1753 C.3     1  UNL1        0.1483
     24 O         141.9205  145.8603  159.2823 O.3     1  UNL1       -0.3786
     25 H         141.3398  146.0048  158.5188 H       1  UNL1        0.2108
     26 C         142.0300  144.4067  161.4329 C.ar    1  UNL1        0.0015
     27 C         141.5938  144.9659  162.7546 C.ar    1  UNL1       -0.0020
     28 C         142.3025  144.5579  164.0122 C.ar    1  UNL1        0.0060
     29 C         143.4473  143.5908  163.9479 C.ar    1  UNL1        0.0748
     30 C         143.8834  143.0316  162.6261 C.ar    1  UNL1        0.0233
     31 C         143.1748  143.4396  161.3686 C.ar    1  UNL1       -0.0238
     32 C         143.6109  142.8804  160.0468 C.3     1  UNL1        0.0306
     33 C         145.0359  142.1038  162.8729 C.3     1  UNL1        0.2352
     34 O         145.3120  142.0895  164.3473 O.3     1  UNL1       -0.4404
     35 C         144.3303  143.0085  165.0116 C.2     1  UNL1        0.3413
     36 O         144.2461  143.2950  166.4816 O.2     1  UNL1       -0.2449
@<TRIPOS>BOND
     1    11    12    1
     2    12    13   ar
     3    13     8    1
     4     8     9    1
     5     8     7    1
     6     7     1    1
     7     1     2    1
     8     2     3    1
     9     3     4    1
    10     4    22    1
    11    22    23    1
    12    23    24    1
    13    23    26    1
    14    26    27   ar
    15    27    28   ar
    16    28    29   ar
    17    29    30   ar
    18    30    31   ar
    19    31    32    1
    20    30    33    1
    21    33    34    1
    22    34    35    1
    23    35    36    2
    24     4     5    1
    25     5     6    1
    26    13    14   ar
    27    14    15   ar
    28    15    16   ar
    29    16    17   ar
    30    17    18    1
    31    18    19    1
    32    19    20    1
    33    20    21    2
    34    17    12   ar
    35     6     1    1
    36    20    16    1
    37    31    26   ar
    38    35    29    1
    39     9    10    1
    40    24    25    1
@<TRIPOS>MOLECULE
*****
 36 40 0 0 0
SMALL
GASTEIGER

@<TRIPOS>ATOM
      1 N         137.9306  140.5215  162.1514 N.3     1  UNL1       -0.2680
      2 C         138.1726  141.4082  160.9660 C.3     1  UNL1        0.0897
      3 C         138.3081  142.8903  161.1533 C.3     1  UNL1        0.0897
      4 N         138.2014  143.4857  162.5260 N.3     1  UNL1       -0.2680
      5 C         137.9594  142.5990  163.7114 C.3     1  UNL1        0.0897
      6 C         137.8240  141.1169  163.5242 C.3     1  UNL1        0.0897
      7 C         137.7952  139.0394  161.9642 C.3     1  UNL1        0.1064
      8 C         139.0170  138.1956  161.7518 C.3     1  UNL1        0.1483
      9 O         139.1203  137.3169  160.5405 O.3     1  UNL1       -0.3786
     10 H         139.9664  136.8427  160.5563 H       1  UNL1        0.2108
     11 C         141.6828  139.3348  160.9797 C.3     1  UNL1        0.0306
     12 C         141.4684  138.8000  162.3647 C.ar    1  UNL1       -0.0238
     13 C         140.1355  138.2304  162.7508 C.ar    1  UNL1        0.0015
     14 C         139.9211  137.6957  164.1357 C.ar    1  UNL1       -0.0020
     15 C         141.0395  137.7305  165.1346 C.ar    1  UNL1        0.0060
     16 C         142.3724  138.3001  164.7486 C.ar    1  UNL1        0.0748
     17 C         142.5868  138.8349  163.3636 C.ar    1  UNL1        0.0233
     18 C         143.9991  139.3320  163.2722 C.3     1  UNL1        0.2352
     19 O         144.6575  139.1045  164.6006 O.3     1  UNL1       -0.4404
     20 C         143.6522  138.4667  165.5131 C.2     1  UNL1        0.3413
     21 O         143.8856  138.0660  166.9396 O.2     1  UNL1       -0.2449
     22 C         138.3369  144.9677  162.7132 C.3     1  UNL1        0.1064
     23 C         139.6441  145.6440  162.4237 C.3     1  UNL1        0.1483
     24 O         139.6618  147.0526  161.9084 O.3     1  UNL1       -0.3786
     25 H         138.7516  147.3759  161.8197 H       1  UNL1        0.2108
     26 C         140.9336  144.9117  162.6496 C.ar    1  UNL1        0.0015
     27 C         141.4481  144.7115  164.0443 C.ar    1  UNL1       -0.0020
     28 C         142.7375  143.9791  164.2701 C.ar    1  UNL1        0.0060
     29 C         143.5125  143.4471  163.1011 C.ar    1  UNL1        0.0748
     30 C         142.9980  143.6473  161.7064 C.ar    1  UNL1        0.0233
     31 C         141.7085  144.3797  161.4807 C.ar    1  UNL1       -0.0238
     32 C         141.1941  144.5799  160.0860 C.3     1  UNL1        0.0306
     33 C         143.9726  143.0150  160.7577 C.3     1  UNL1        0.2352
     34 O         145.0894  142.4238  161.5660 O.3     1  UNL1       -0.4404
     35 C         144.8051  142.6909  163.0143 C.2     1  UNL1        0.3413
     36 O         145.6627  142.2749  164.1725 O.2     1  UNL1       -0.2449
@<TRIPOS>BOND
     1    11    12    1
     2    12    13   ar
     3    13     8    1
     4     8     9    1
     5     8     7    1
     6     7     1    1
     7     1     2    1
     8     2     3    1
     9     3     4    1
    10     4    22    1
    11    22    23    1
    12    23    24    1
    13    23    26    1
    14    26    27   ar
    15    27    28   ar
    16    28    29   ar
    17    29    30   ar
    18    30    31   ar
    19    31    32    1
    20    30    33    1
    21    33    34    1
    22    34    35    1
    23    35    36    2
    24     4     5    1
    25     5     6    1
    26    13    14   ar
    27    14    15   ar
    28    15    16   ar
    29    16    17   ar
    30    17    18    1
    31    18    19    1
    32    19    20    1
    33    20    21    2
    34    17    12   ar
    35     6     1    1
    36    20    16    1
    37    31    26   ar
    38    35    29    1
    39     9    10    1
    40    24    25    1
@<TRIPOS>MOLECULE
*****
 36 40 0 0 0
SMALL
GASTEIGER

@<TRIPOS>ATOM
      1 N         141.3525  138.0785  163.7118 N.3     1  UNL1       -0.2680
      2 C         142.3338  138.2090  162.5848 C.3     1  UNL1        0.0897
      3 C         143.5882  139.0098  162.7715 C.3     1  UNL1        0.0897
      4 N         143.8614  139.6803  164.0852 N.3     1  UNL1       -0.2680
      5 C         142.8802  139.5499  165.2123 C.3     1  UNL1        0.0897
      6 C         141.6257  138.7490  165.0256 C.3     1  UNL1        0.0897
      7 C         140.0981  137.2777  163.5251 C.3     1  UNL1        0.1064
      8 C         138.8546  137.9406  163.0112 C.3     1  UNL1        0.1483
      9 O         137.8731  137.1592  162.1890 O.3     1  UNL1       -0.3786
     10 H         137.1315  137.7325  161.9393 H       1  UNL1        0.2108
     11 C         138.6218  139.9322  160.7797 C.3     1  UNL1        0.0306
     12 C         138.4761  140.3809  162.2036 C.ar    1  UNL1       -0.0238
     13 C         138.5925  139.3851  163.3194 C.ar    1  UNL1        0.0015
     14 C         138.4469  139.8337  164.7432 C.ar    1  UNL1       -0.0020
     15 C         138.1848  141.2781  165.0515 C.ar    1  UNL1        0.0060
     16 C         138.0685  142.2739  163.9358 C.ar    1  UNL1        0.0748
     17 C         138.2141  141.8253  162.5118 C.ar    1  UNL1        0.0233
     18 C         138.0514  143.0266  161.6284 C.3     1  UNL1        0.2352
     19 O         137.8051  144.2176  162.5063 O.3     1  UNL1       -0.4404
     20 C         137.8157  143.7525  163.9324 C.2     1  UNL1        0.3413
     21 O         137.6096  144.6145  165.1425 O.2     1  UNL1       -0.2449
     22 C         145.1159  140.4812  164.2719 C.3     1  UNL1        0.1064
     23 C         145.4310  141.6106  163.3364 C.3     1  UNL1        0.1483
     24 O         146.8552  141.9055  162.9695 O.3     1  UNL1       -0.3786
     25 H         147.4417  141.2777  163.4199 H       1  UNL1        0.2108
     26 C         144.3218  142.4451  162.7678 C.ar    1  UNL1        0.0015
     27 C         143.8759  142.2354  161.3511 C.ar    1  UNL1       -0.0020
     28 C         142.7667  143.0699  160.7826 C.ar    1  UNL1        0.0060
     29 C         142.1035  144.1143  161.6308 C.ar    1  UNL1        0.0748
     30 C         142.5494  144.3240  163.0475 C.ar    1  UNL1        0.0233
     31 C         143.6586  143.4895  163.6160 C.ar    1  UNL1       -0.0238
     32 C         144.1045  143.6992  165.0328 C.3     1  UNL1        0.0306
     33 C         141.7140  145.4205  163.6389 C.3     1  UNL1        0.2352
     34 O         140.7517  145.8884  162.5875 O.3     1  UNL1       -0.4404
     35 C         140.9924  145.0812  161.3465 C.2     1  UNL1        0.3413
     36 O         140.2521  145.2168  160.0490 O.2     1  UNL1       -0.2449
@<TRIPOS>BOND
     1    11    12    1
     2    12    13   ar
     3    13     8    1
     4     8     9    1
     5     8     7    1
     6     7     1    1
     7     1     2    1
     8     2     3    1
     9     3     4    1
    10     4    22    1
    11    22    23    1
    12    23    24    1
    13    23    26    1
    14    26    27   ar
    15    27    28   ar
    16    28    29   ar
    17    29    30   ar
    18    30    31   ar
    19    31    32    1
    20    30    33    1
    21    33    34    1
    22    34    35    1
    23    35    36    2
    24     4     5    1
    25     5     6    1
    26    13    14   ar
    27    14    15   ar
    28    15    16   ar
    29    16    17   ar
    30    17    18    1
    31    18    19    1
    32    19    20    1
    33    20    21    2
    34    17    12   ar
    35     6     1    1
    36    20    16    1
    37    31    26   ar
    38    35    29    1
    39     9    10    1
    40    24    25    1
