@<TRIPOS>MOLECULE
*****
 41 47 0 0 0
SMALL
GASTEIGER

@<TRIPOS>ATOM
      1 C         142.9508  138.9593  167.5988 C.3     1  UNL1        0.0730
      2 N         142.7538  139.7132  166.3170 N.3     1  UNL1       -0.2720
      3 C         142.0525  138.9643  165.2228 C.3     1  UNL1        0.0768
      4 C         141.7083  139.4336  163.8402 C.3     1  UNL1        0.0434
      5 C         141.9804  140.7674  163.2105 C.ar    1  UNL1       -0.0230
      6 C         141.4680  140.8232  161.8018 C.ar    1  UNL1        0.0178
      7 C         141.6390  142.0731  160.9904 C.ar    1  UNL1        0.1198
      8 N         141.2405  142.4211  159.5869 N.ar    1  UNL1       -0.1946
      9 C         141.6776  143.8303  159.3167 C.ar    1  UNL1        0.2924
     10 O         142.3463  144.3533  160.5532 O.2     1  UNL1       -0.4237
     11 C         142.3225  143.2674  161.5876 C.ar    1  UNL1        0.1657
     12 C         142.8349  143.2116  162.9964 C.ar    1  UNL1        0.0346
     13 C         142.6638  141.9617  163.8078 C.ar    1  UNL1       -0.0216
     14 C         143.2440  142.1169  165.1823 C.3     1  UNL1        0.0434
     15 C         143.2840  141.1162  166.2990 C.3     1  UNL1        0.0768
     16 N         141.4805  144.5841  158.0349 N.pl3   1  UNL1       -0.2636
     17 C         140.3464  145.5572  157.9039 C.3     1  UNL1        0.0951
     18 C         140.1493  146.3110  156.6221 C.3     1  UNL1        0.0216
     19 C         141.0862  146.0917  155.4713 C.3     1  UNL1        0.0035
     20 C         142.2203  145.1187  155.6024 C.3     1  UNL1        0.0216
     21 C         142.4174  144.3649  156.8842 C.3     1  UNL1        0.0951
     22 C         142.8544  139.6761  168.9129 C.3     1  UNL1        0.0294
     23 C         141.6946  139.4132  169.8272 C.3     1  UNL1        0.0666
     24 S         140.4510  140.2448  169.7192 S.3     1  UNL1       -0.0756
     25 C         139.5107  141.7762  166.2788 C.ar    1  UNL1        0.1669
     26 N         140.1691  142.9468  166.9469 N.ar    1  UNL1       -0.1282
     27 N         140.6014  142.5155  168.3170 N.ar    1  UNL1       -0.1221
     28 C         140.2103  141.0785  168.4956 C.ar    1  UNL1        0.1932
     29 N         139.5362  140.6216  167.2360 N.ar    1  UNL1       -0.2884
     30 C         138.9844  139.2507  166.9786 C.3     1  UNL1        0.1340
     31 C         139.5272  146.5601  161.3428 C.3     1  UNL1        0.0521
     32 C         139.3777  145.3607  162.2312 C.ar    1  UNL1        0.0593
     33 C         139.9594  145.3743  163.6137 C.ar    1  UNL1        0.0147
     34 C         139.8098  144.1749  164.5020 C.ar    1  UNL1        0.0028
     35 C         139.0786  142.9620  164.0079 C.ar    1  UNL1        0.0206
     36 C         138.9290  141.7627  164.8963 C.ar    1  UNL1        0.0374
     37 C         138.1978  140.5499  164.4021 C.ar    1  UNL1        0.0031
     38 C         137.6161  140.5363  163.0195 C.ar    1  UNL1        0.0016
     39 C         137.7656  141.7356  162.1312 C.ar    1  UNL1        0.0191
     40 C         138.4969  142.9485  162.6253 C.ar    1  UNL1        0.0810
     41 N         138.6464  144.1479  161.7369 N.ar    1  UNL1       -0.2497
@<TRIPOS>BOND
     1    31    32    1
     2    32    33   ar
     3    33    34   ar
     4    34    35   ar
     5    35    36   ar
     6    36    25    1
     7    25    26   ar
     8    26    27   ar
     9    27    28   ar
    10    28    24    1
    11    24    23    1
    12    23    22    1
    13    22     1    1
    14     1     2    1
    15     2     3    1
    16     3     4    1
    17     4     5    1
    18     5     6   ar
    19     6     7   ar
    20     7     8   ar
    21     8     9   ar
    22     9    16    1
    23    16    17    1
    24    17    18    1
    25    18    19    1
    26    19    20    1
    27    20    21    1
    28     9    10   ar
    29    10    11   ar
    30    11    12   ar
    31    12    13   ar
    32    13    14    1
    33    14    15    1
    34    28    29   ar
    35    29    30    1
    36    36    37   ar
    37    37    38   ar
    38    38    39   ar
    39    39    40   ar
    40    40    41   ar
    41    41    32   ar
    42    40    35   ar
    43    29    25   ar
    44    15     2    1
    45    13     5   ar
    46    11     7   ar
    47    21    16    1
@<TRIPOS>MOLECULE
*****
 41 47 0 0 0
SMALL
GASTEIGER

@<TRIPOS>ATOM
      1 C         139.0345  139.5187  167.2900 C.3     1  UNL1        0.0730
      2 N         138.8596  139.8505  165.8376 N.3     1  UNL1       -0.2720
      3 C         138.7286  138.6765  164.9131 C.3     1  UNL1        0.0768
      4 C         138.5444  138.6744  163.4244 C.3     1  UNL1        0.0434
      5 C         138.4458  139.8457  162.4927 C.ar    1  UNL1       -0.0230
      6 C         138.2638  139.4016  161.0715 C.ar    1  UNL1        0.0178
      7 C         138.1429  140.4202  159.9771 C.ar    1  UNL1        0.1198
      8 N         137.9576  140.2838  158.4949 N.ar    1  UNL1       -0.1946
      9 C         137.9043  141.6621  157.9055 C.ar    1  UNL1        0.2924
     10 O         138.0567  142.6504  159.0235 O.2     1  UNL1       -0.4237
     11 C         138.2041  141.8830  160.3037 C.ar    1  UNL1        0.1657
     12 C         138.3862  142.3271  161.7249 C.ar    1  UNL1        0.0346
     13 C         138.5070  141.3084  162.8193 C.ar    1  UNL1       -0.0216
     14 C         138.6820  141.9611  164.1585 C.3     1  UNL1        0.0434
     15 C         138.8389  141.3121  165.5018 C.3     1  UNL1        0.0768
     16 N         137.7294  141.9938  156.4531 N.pl3   1  UNL1       -0.2636
     17 C         138.1343  141.0018  155.4032 C.3     1  UNL1        0.0951
     18 C         137.9594  141.3334  153.9508 C.3     1  UNL1        0.0216
     19 C         137.3797  142.6570  153.5483 C.3     1  UNL1        0.0035
     20 C         136.9747  143.6490  154.5981 C.3     1  UNL1        0.0216
     21 C         137.1497  143.3173  156.0505 C.3     1  UNL1        0.0951
     22 C         139.7861  140.4558  168.1882 C.3     1  UNL1        0.0294
     23 C         140.7313  139.9113  169.2179 C.3     1  UNL1        0.0666
     24 S         142.2122  139.9920  168.9938 S.3     1  UNL1       -0.0756
     25 C         143.5104  142.1344  166.0289 C.ar    1  UNL1        0.1669
     26 N         143.7646  143.0555  167.1853 N.ar    1  UNL1       -0.1282
     27 N         143.3092  142.3650  168.4366 N.ar    1  UNL1       -0.1221
     28 C         142.7736  141.0173  168.0537 C.ar    1  UNL1        0.1932
     29 N         142.8980  140.8748  166.5657 N.ar    1  UNL1       -0.2884
     30 C         142.4827  139.6819  165.7565 C.3     1  UNL1        0.1340
     31 C         140.1681  145.9627  161.4004 C.3     1  UNL1        0.0521
     32 C         141.0798  145.0776  162.1975 C.ar    1  UNL1        0.0593
     33 C         140.7750  144.7896  163.6377 C.ar    1  UNL1        0.0147
     34 C         141.6868  143.9045  164.4348 C.ar    1  UNL1        0.0028
     35 C         142.9034  143.3075  163.7917 C.ar    1  UNL1        0.0206
     36 C         143.8152  142.4224  164.5888 C.ar    1  UNL1        0.0374
     37 C         145.0317  141.8255  163.9457 C.ar    1  UNL1        0.0031
     38 C         145.3365  142.1135  162.5055 C.ar    1  UNL1        0.0016
     39 C         144.4248  142.9985  161.7085 C.ar    1  UNL1        0.0191
     40 C         143.2082  143.5955  162.3515 C.ar    1  UNL1        0.0810
     41 N         142.2965  144.4806  161.5544 N.ar    1  UNL1       -0.2497
@<TRIPOS>BOND
     1    31    32    1
     2    32    33   ar
     3    33    34   ar
     4    34    35   ar
     5    35    36   ar
     6    36    25    1
     7    25    26   ar
     8    26    27   ar
     9    27    28   ar
    10    28    24    1
    11    24    23    1
    12    23    22    1
    13    22     1    1
    14     1     2    1
    15     2     3    1
    16     3     4    1
    17     4     5    1
    18     5     6   ar
    19     6     7   ar
    20     7     8   ar
    21     8     9   ar
    22     9    16    1
    23    16    17    1
    24    17    18    1
    25    18    19    1
    26    19    20    1
    27    20    21    1
    28     9    10   ar
    29    10    11   ar
    30    11    12   ar
    31    12    13   ar
    32    13    14    1
    33    14    15    1
    34    28    29   ar
    35    29    30    1
    36    36    37   ar
    37    37    38   ar
    38    38    39   ar
    39    39    40   ar
    40    40    41   ar
    41    41    32   ar
    42    40    35   ar
    43    29    25   ar
    44    15     2    1
    45    13     5   ar
    46    11     7   ar
    47    21    16    1
@<TRIPOS>MOLECULE
*****
 41 47 0 0 0
SMALL
GASTEIGER

@<TRIPOS>ATOM
      1 C         143.1857  138.6727  167.2836 C.3     1  UNL1        0.0730
      2 N         143.0724  138.6463  165.7881 N.3     1  UNL1       -0.2720
      3 C         144.2882  139.0994  165.0353 C.3     1  UNL1        0.0768
      4 C         144.4901  139.1883  163.5515 C.3     1  UNL1        0.0434
      5 C         143.5262  138.8463  162.4544 C.ar    1  UNL1       -0.0230
      6 C         144.1300  139.0812  161.1015 C.ar    1  UNL1        0.0178
      7 C         143.3300  138.8005  159.8641 C.ar    1  UNL1        0.1198
      8 N         143.6560  138.9347  158.4061 N.ar    1  UNL1       -0.1946
      9 C         142.4536  138.5021  157.6205 C.ar    1  UNL1        0.2924
     10 O         141.3845  138.1006  158.5929 O.2     1  UNL1       -0.4237
     11 C         141.9261  138.2850  159.9795 C.ar    1  UNL1        0.1657
     12 C         141.3222  138.0501  161.3324 C.ar    1  UNL1        0.0346
     13 C         142.1223  138.3307  162.5698 C.ar    1  UNL1       -0.0216
     14 C         141.3356  138.0299  163.8110 C.3     1  UNL1        0.0434
     15 C         141.7585  138.1704  165.2433 C.3     1  UNL1        0.0768
     16 N         142.3404  138.4757  156.1250 N.pl3   1  UNL1       -0.2636
     17 C         142.1480  139.7545  155.3648 C.3     1  UNL1        0.0951
     18 C         142.0347  139.7281  153.8693 C.3     1  UNL1        0.0216
     19 C         142.1139  138.4231  153.1340 C.3     1  UNL1        0.0035
     20 C         142.3063  137.1443  153.8942 C.3     1  UNL1        0.0216
     21 C         142.4195  137.1707  155.3897 C.3     1  UNL1        0.0951
     22 C         142.7436  139.8852  168.0480 C.3     1  UNL1        0.0294
     23 C         141.8434  139.7343  169.2384 C.3     1  UNL1        0.0666
     24 S         140.3799  140.0392  169.1155 S.3     1  UNL1       -0.0756
     25 C         139.1497  141.3566  165.6779 C.ar    1  UNL1        0.1669
     26 N         138.5465  139.9833  165.6948 N.ar    1  UNL1       -0.1282
     27 N         138.9339  139.3227  166.9846 N.ar    1  UNL1       -0.1221
     28 C         139.7766  140.2877  167.7648 C.ar    1  UNL1        0.1932
     29 N         139.9100  141.5446  166.9572 N.ar    1  UNL1       -0.2884
     30 C         140.6701  142.7739  167.3586 C.3     1  UNL1        0.1340
     31 C         143.5612  143.2595  160.7617 C.3     1  UNL1        0.0521
     32 C         142.4249  143.0358  161.7151 C.ar    1  UNL1        0.0593
     33 C         142.5585  142.0276  162.8178 C.ar    1  UNL1        0.0147
     34 C         141.4222  141.8039  163.7711 C.ar    1  UNL1        0.0028
     35 C         140.1524  142.5884  163.6219 C.ar    1  UNL1        0.0206
     36 C         139.0162  142.3647  164.5754 C.ar    1  UNL1        0.0374
     37 C         137.7465  143.1492  164.4261 C.ar    1  UNL1        0.0031
     38 C         137.6129  144.1574  163.3234 C.ar    1  UNL1        0.0016
     39 C         138.7491  144.3810  162.3701 C.ar    1  UNL1        0.0191
     40 C         140.0189  143.5966  162.5193 C.ar    1  UNL1        0.0810
     41 N         141.1551  143.8203  161.5659 N.ar    1  UNL1       -0.2497
@<TRIPOS>BOND
     1    31    32    1
     2    32    33   ar
     3    33    34   ar
     4    34    35   ar
     5    35    36   ar
     6    36    25    1
     7    25    26   ar
     8    26    27   ar
     9    27    28   ar
    10    28    24    1
    11    24    23    1
    12    23    22    1
    13    22     1    1
    14     1     2    1
    15     2     3    1
    16     3     4    1
    17     4     5    1
    18     5     6   ar
    19     6     7   ar
    20     7     8   ar
    21     8     9   ar
    22     9    16    1
    23    16    17    1
    24    17    18    1
    25    18    19    1
    26    19    20    1
    27    20    21    1
    28     9    10   ar
    29    10    11   ar
    30    11    12   ar
    31    12    13   ar
    32    13    14    1
    33    14    15    1
    34    28    29   ar
    35    29    30    1
    36    36    37   ar
    37    37    38   ar
    38    38    39   ar
    39    39    40   ar
    40    40    41   ar
    41    41    32   ar
    42    40    35   ar
    43    29    25   ar
    44    15     2    1
    45    13     5   ar
    46    11     7   ar
    47    21    16    1
@<TRIPOS>MOLECULE
*****
 41 47 0 0 0
SMALL
GASTEIGER

@<TRIPOS>ATOM
      1 C         142.6078  142.5931  169.2457 C.3     1  UNL1        0.0730
      2 N         142.1530  142.6914  167.8198 N.3     1  UNL1       -0.2720
      3 C         140.7079  143.0410  167.6203 C.3     1  UNL1        0.0768
      4 C         139.9562  143.2127  166.3336 C.3     1  UNL1        0.0434
      5 C         140.4639  143.0772  164.9287 C.ar    1  UNL1       -0.0230
      6 C         139.3775  143.3327  163.9264 C.ar    1  UNL1        0.0178
      7 C         139.6758  143.2476  162.4589 C.ar    1  UNL1        0.1198
      8 N         138.8153  143.4464  161.2465 N.ar    1  UNL1       -0.1946
      9 C         139.6681  143.2287  160.0319 C.ar    1  UNL1        0.2924
     10 O         141.0558  142.8953  160.4936 O.2     1  UNL1       -0.4237
     11 C         141.0605  142.9070  161.9935 C.ar    1  UNL1        0.1657
     12 C         142.1469  142.6515  162.9958 C.ar    1  UNL1        0.0346
     13 C         141.8486  142.7366  164.4634 C.ar    1  UNL1       -0.0216
     14 C         143.0677  142.4473  165.2881 C.3     1  UNL1        0.0434
     15 C         143.2030  142.4272  166.7819 C.3     1  UNL1        0.0768
     16 N         139.2131  143.3270  158.6060 N.pl3   1  UNL1       -0.2636
     17 C         138.0772  142.4759  158.1208 C.3     1  UNL1        0.0951
     18 C         137.6222  142.5742  156.6948 C.3     1  UNL1        0.0216
     19 C         138.3030  143.5237  155.7541 C.3     1  UNL1        0.0035
     20 C         139.4389  144.3749  156.2393 C.3     1  UNL1        0.0216
     21 C         139.8939  144.2765  157.6652 C.3     1  UNL1        0.0951
     22 C         141.6106  142.3286  170.3346 C.3     1  UNL1        0.0294
     23 C         141.6420  141.0274  171.0804 C.3     1  UNL1        0.0666
     24 S         140.8220  139.8672  170.5992 S.3     1  UNL1       -0.0756
     25 C         140.5540  139.4779  166.7467 C.ar    1  UNL1        0.1669
     26 N         139.1271  139.7661  167.1089 N.ar    1  UNL1       -0.1282
     27 N         139.0539  139.9470  168.5961 N.ar    1  UNL1       -0.1221
     28 C         140.4355  139.7706  169.1531 C.ar    1  UNL1        0.1932
     29 N         141.3625  139.4807  168.0101 N.ar    1  UNL1       -0.2884
     30 C         142.8390  139.2365  168.1125 C.3     1  UNL1        0.1340
     31 C         137.4869  139.9549  160.6135 C.3     1  UNL1        0.0521
     32 C         138.3851  139.7738  161.8011 C.ar    1  UNL1        0.0593
     33 C         137.8592  140.0213  163.1839 C.ar    1  UNL1        0.0147
     34 C         138.7575  139.8402  164.3715 C.ar    1  UNL1        0.0028
     35 C         140.1816  139.4115  164.1763 C.ar    1  UNL1        0.0206
     36 C         141.0799  139.2304  165.3639 C.ar    1  UNL1        0.0374
     37 C         142.5039  138.8018  165.1686 C.ar    1  UNL1        0.0031
     38 C         143.0299  138.5543  163.7858 C.ar    1  UNL1        0.0016
     39 C         142.1317  138.7354  162.5983 C.ar    1  UNL1        0.0191
     40 C         140.7075  139.1640  162.7935 C.ar    1  UNL1        0.0810
     41 N         139.8093  139.3451  161.6058 N.ar    1  UNL1       -0.2497
@<TRIPOS>BOND
     1    31    32    1
     2    32    33   ar
     3    33    34   ar
     4    34    35   ar
     5    35    36   ar
     6    36    25    1
     7    25    26   ar
     8    26    27   ar
     9    27    28   ar
    10    28    24    1
    11    24    23    1
    12    23    22    1
    13    22     1    1
    14     1     2    1
    15     2     3    1
    16     3     4    1
    17     4     5    1
    18     5     6   ar
    19     6     7   ar
    20     7     8   ar
    21     8     9   ar
    22     9    16    1
    23    16    17    1
    24    17    18    1
    25    18    19    1
    26    19    20    1
    27    20    21    1
    28     9    10   ar
    29    10    11   ar
    30    11    12   ar
    31    12    13   ar
    32    13    14    1
    33    14    15    1
    34    28    29   ar
    35    29    30    1
    36    36    37   ar
    37    37    38   ar
    38    38    39   ar
    39    39    40   ar
    40    40    41   ar
    41    41    32   ar
    42    40    35   ar
    43    29    25   ar
    44    15     2    1
    45    13     5   ar
    46    11     7   ar
    47    21    16    1
@<TRIPOS>MOLECULE
*****
 41 47 0 0 0
SMALL
GASTEIGER

@<TRIPOS>ATOM
      1 C         142.4292  142.6249  156.6282 C.3     1  UNL1        0.0730
      2 N         142.1419  142.5137  158.0962 N.3     1  UNL1       -0.2720
      3 C         140.7226  142.1906  158.4589 C.3     1  UNL1        0.0768
      4 C         140.1227  142.0144  159.8224 C.3     1  UNL1        0.0434
      5 C         140.7938  142.1176  161.1598 C.ar    1  UNL1       -0.0230
      6 C         139.8265  141.8688  162.2790 C.ar    1  UNL1        0.0178
      7 C         140.2960  141.9250  163.7025 C.ar    1  UNL1        0.1198
      8 N         139.5787  141.7250  165.0046 N.ar    1  UNL1       -0.1946
      9 C         140.5721  141.9064  166.1138 C.ar    1  UNL1        0.2924
     10 O         141.9034  142.2185  165.4972 O.2     1  UNL1       -0.4237
     11 C         141.7328  142.2300  164.0070 C.ar    1  UNL1        0.1657
     12 C         142.7001  142.4788  162.8878 C.ar    1  UNL1        0.0346
     13 C         142.2306  142.4226  161.4643 C.ar    1  UNL1       -0.0216
     14 C         143.3511  142.6997  160.5064 C.3     1  UNL1        0.0434
     15 C         143.3116  142.7402  159.0074 C.3     1  UNL1        0.0768
     16 N         140.2847  141.7952  167.5818 N.pl3   1  UNL1       -0.2636
     17 C         139.7769  140.5035  168.1508 C.3     1  UNL1        0.0951
     18 C         139.4894  140.3923  169.6188 C.3     1  UNL1        0.0216
     19 C         139.7097  141.5727  170.5178 C.3     1  UNL1        0.0035
     20 C         140.2174  142.8644  169.9487 C.3     1  UNL1        0.0216
     21 C         140.5049  142.9756  168.4807 C.3     1  UNL1        0.0951
     22 C         143.1130  141.4992  155.9105 C.3     1  UNL1        0.0294
     23 C         142.3435  140.2638  155.5475 C.3     1  UNL1        0.0666
     24 S         142.6122  138.9747  156.2659 S.3     1  UNL1       -0.0756
     25 C         141.7689  138.6977  160.0445 C.ar    1  UNL1        0.1669
     26 N         143.2340  139.0155  160.0970 N.ar    1  UNL1       -0.1282
     27 N         143.7281  139.1579  158.6879 N.ar    1  UNL1       -0.1221
     28 C         142.5685  138.9282  157.7646 C.ar    1  UNL1        0.1932
     29 N         141.3577  138.6438  158.6030 N.ar    1  UNL1       -0.2884
     30 C         139.9778  138.3560  158.0900 C.3     1  UNL1        0.1340
     31 C         143.1048  138.7830  166.7868 C.3     1  UNL1        0.0521
     32 C         142.5467  138.7056  165.3966 C.ar    1  UNL1        0.0593
     33 C         143.4431  138.9300  164.2150 C.ar    1  UNL1        0.0147
     34 C         142.8850  138.8526  162.8249 C.ar    1  UNL1        0.0028
     35 C         141.4306  138.5508  162.6162 C.ar    1  UNL1        0.0206
     36 C         140.8726  138.4734  161.2260 C.ar    1  UNL1        0.0374
     37 C         139.4181  138.1715  161.0175 C.ar    1  UNL1        0.0031
     38 C         138.5217  137.9471  162.1991 C.ar    1  UNL1        0.0016
     39 C         139.0798  138.0246  163.5892 C.ar    1  UNL1        0.0191
     40 C         140.5342  138.3264  163.7978 C.ar    1  UNL1        0.0810
     41 N         141.0922  138.4038  165.1880 N.ar    1  UNL1       -0.2497
@<TRIPOS>BOND
     1    31    32    1
     2    32    33   ar
     3    33    34   ar
     4    34    35   ar
     5    35    36   ar
     6    36    25    1
     7    25    26   ar
     8    26    27   ar
     9    27    28   ar
    10    28    24    1
    11    24    23    1
    12    23    22    1
    13    22     1    1
    14     1     2    1
    15     2     3    1
    16     3     4    1
    17     4     5    1
    18     5     6   ar
    19     6     7   ar
    20     7     8   ar
    21     8     9   ar
    22     9    16    1
    23    16    17    1
    24    17    18    1
    25    18    19    1
    26    19    20    1
    27    20    21    1
    28     9    10   ar
    29    10    11   ar
    30    11    12   ar
    31    12    13   ar
    32    13    14    1
    33    14    15    1
    34    28    29   ar
    35    29    30    1
    36    36    37   ar
    37    37    38   ar
    38    38    39   ar
    39    39    40   ar
    40    40    41   ar
    41    41    32   ar
    42    40    35   ar
    43    29    25   ar
    44    15     2    1
    45    13     5   ar
    46    11     7   ar
    47    21    16    1
@<TRIPOS>MOLECULE
*****
 41 47 0 0 0
SMALL
GASTEIGER

@<TRIPOS>ATOM
      1 C         143.3819  141.2873  157.0037 C.3     1  UNL1        0.0730
      2 N         142.9815  141.3619  158.4474 N.3     1  UNL1       -0.2720
      3 C         142.3348  140.1299  159.0078 C.3     1  UNL1        0.0768
      4 C         141.8275  139.8904  160.3991 C.3     1  UNL1        0.0434
      5 C         141.8418  140.8235  161.5733 C.ar    1  UNL1       -0.0230
      6 C         141.2325  140.1864  162.7870 C.ar    1  UNL1        0.0178
      7 C         141.1482  140.9526  164.0738 C.ar    1  UNL1        0.1198
      8 N         140.6052  140.5899  165.4241 N.ar    1  UNL1       -0.1946
      9 C         140.7946  141.7689  166.3319 C.ar    1  UNL1        0.2924
     10 O         141.4546  142.8603  165.5425 O.2     1  UNL1       -0.4237
     11 C         141.6732  142.3558  164.1470 C.ar    1  UNL1        0.1657
     12 C         142.2825  142.9929  162.9333 C.ar    1  UNL1        0.0346
     13 C         142.3668  142.2267  161.6465 C.ar    1  UNL1       -0.0216
     14 C         143.0072  143.0434  160.5634 C.3     1  UNL1        0.0434
     15 C         143.2807  142.6584  159.1397 C.3     1  UNL1        0.0768
     16 N         140.3941  141.8434  167.7755 N.pl3   1  UNL1       -0.2636
     17 C         139.7863  140.6481  168.4478 C.3     1  UNL1        0.0951
     18 C         139.3859  140.7226  169.8915 C.3     1  UNL1        0.0216
     19 C         139.5932  141.9922  170.6628 C.3     1  UNL1        0.0035
     20 C         140.2010  143.1875  169.9905 C.3     1  UNL1        0.0216
     21 C         140.6014  143.1131  168.5469 C.3     1  UNL1        0.0951
     22 C         142.3316  141.1715  155.9391 C.3     1  UNL1        0.0294
     23 C         141.7488  142.4087  155.3227 C.3     1  UNL1        0.0666
     24 S         140.3648  142.8513  155.6946 S.3     1  UNL1       -0.0756
     25 C         139.2178  142.7035  159.3998 C.ar    1  UNL1        0.1669
     26 N         139.7082  144.1180  159.3043 N.ar    1  UNL1       -0.1282
     27 N         140.1975  144.3454  157.9047 N.ar    1  UNL1       -0.1221
     28 C         140.0096  143.0716  157.1352 C.ar    1  UNL1        0.1932
     29 N         139.4041  142.0569  158.0592 N.ar    1  UNL1       -0.2884
     30 C         139.0475  140.6436  157.7048 C.3     1  UNL1        0.1340
     31 C         138.4055  145.0637  165.8045 C.3     1  UNL1        0.0521
     32 C         138.4647  144.3104  164.5086 C.ar    1  UNL1        0.0593
     33 C         139.0403  144.9635  163.2871 C.ar    1  UNL1        0.0147
     34 C         139.0995  144.2101  161.9913 C.ar    1  UNL1        0.0028
     35 C         138.5831  142.8038  161.9171 C.ar    1  UNL1        0.0206
     36 C         138.6423  142.0505  160.6212 C.ar    1  UNL1        0.0374
     37 C         138.1258  140.6442  160.5471 C.ar    1  UNL1        0.0031
     38 C         137.5503  139.9911  161.7687 C.ar    1  UNL1        0.0016
     39 C         137.4911  140.7444  163.0644 C.ar    1  UNL1        0.0191
     40 C         138.0075  142.1507  163.1386 C.ar    1  UNL1        0.0810
     41 N         137.9483  142.9040  164.4345 N.ar    1  UNL1       -0.2497
@<TRIPOS>BOND
     1    31    32    1
     2    32    33   ar
     3    33    34   ar
     4    34    35   ar
     5    35    36   ar
     6    36    25    1
     7    25    26   ar
     8    26    27   ar
     9    27    28   ar
    10    28    24    1
    11    24    23    1
    12    23    22    1
    13    22     1    1
    14     1     2    1
    15     2     3    1
    16     3     4    1
    17     4     5    1
    18     5     6   ar
    19     6     7   ar
    20     7     8   ar
    21     8     9   ar
    22     9    16    1
    23    16    17    1
    24    17    18    1
    25    18    19    1
    26    19    20    1
    27    20    21    1
    28     9    10   ar
    29    10    11   ar
    30    11    12   ar
    31    12    13   ar
    32    13    14    1
    33    14    15    1
    34    28    29   ar
    35    29    30    1
    36    36    37   ar
    37    37    38   ar
    38    38    39   ar
    39    39    40   ar
    40    40    41   ar
    41    41    32   ar
    42    40    35   ar
    43    29    25   ar
    44    15     2    1
    45    13     5   ar
    46    11     7   ar
    47    21    16    1
@<TRIPOS>MOLECULE
*****
 41 47 0 0 0
SMALL
GASTEIGER

@<TRIPOS>ATOM
      1 C         139.9000  138.1083  157.5235 C.3     1  UNL1        0.0730
      2 N         140.1451  138.6572  158.8978 N.3     1  UNL1       -0.2720
      3 C         141.5845  138.7850  159.3003 C.3     1  UNL1        0.0768
      4 C         142.1527  139.2929  160.5924 C.3     1  UNL1        0.0434
      5 C         141.4220  139.7984  161.8008 C.ar    1  UNL1       -0.0230
      6 C         142.3741  140.2125  162.8835 C.ar    1  UNL1        0.0178
      7 C         141.8467  140.7491  164.1811 C.ar    1  UNL1        0.1198
      8 N         142.5370  141.2333  165.4217 N.ar    1  UNL1       -0.1946
      9 C         141.4842  141.6550  166.4034 C.ar    1  UNL1        0.2924
     10 O         140.1432  141.4314  165.7696 O.2     1  UNL1       -0.4237
     11 C         140.3672  140.8716  164.3962 C.ar    1  UNL1        0.1657
     12 C         139.4151  140.4574  163.3135 C.ar    1  UNL1        0.0346
     13 C         139.9425  139.9208  162.0159 C.ar    1  UNL1       -0.0216
     14 C         138.8284  139.5681  161.0755 C.3     1  UNL1        0.0434
     15 C         138.9187  139.0057  159.6878 C.3     1  UNL1        0.0768
     16 N         141.7294  142.2038  167.7777 N.pl3   1  UNL1       -0.2636
     17 C         143.0642  142.0120  168.4347 C.3     1  UNL1        0.0951
     18 C         143.3095  142.5609  169.8090 C.3     1  UNL1        0.0216
     19 C         142.2201  143.3016  170.5262 C.3     1  UNL1        0.0035
     20 C         140.8852  143.4935  169.8692 C.3     1  UNL1        0.0216
     21 C         140.6400  142.9446  168.4949 C.3     1  UNL1        0.0951
     22 C         140.1791  138.9547  156.3171 C.3     1  UNL1        0.0294
     23 C         139.1206  139.8751  155.7854 C.3     1  UNL1        0.0666
     24 S         139.2559  141.3578  155.9668 S.3     1  UNL1       -0.0756
     25 C         140.0051  142.8150  159.4855 C.ar    1  UNL1        0.1669
     26 N         138.5075  142.8954  159.4513 N.ar    1  UNL1       -0.1282
     27 N         138.0447  142.3593  158.1290 N.ar    1  UNL1       -0.1221
     28 C         139.2561  141.9476  157.3460 C.ar    1  UNL1        0.1932
     29 N         140.4676  142.2293  158.1844 N.ar    1  UNL1       -0.2884
     30 C         141.8918  141.9706  157.7907 C.3     1  UNL1        0.1340
     31 C         138.4404  145.0437  165.7970 C.3     1  UNL1        0.0521
     32 C         139.0516  144.5940  164.5031 C.ar    1  UNL1        0.0593
     33 C         138.1713  144.1640  163.3672 C.ar    1  UNL1        0.0147
     34 C         138.7826  143.7144  162.0733 C.ar    1  UNL1        0.0028
     35 C         140.2741  143.6946  161.9153 C.ar    1  UNL1        0.0206
     36 C         140.8853  143.2449  160.6213 C.ar    1  UNL1        0.0374
     37 C         142.3768  143.2252  160.4634 C.ar    1  UNL1        0.0031
     38 C         143.2571  143.6551  161.5993 C.ar    1  UNL1        0.0016
     39 C         142.6459  144.1048  162.8931 C.ar    1  UNL1        0.0191
     40 C         141.1544  144.1245  163.0512 C.ar    1  UNL1        0.0810
     41 N         140.5432  144.5742  164.3451 N.ar    1  UNL1       -0.2497
@<TRIPOS>BOND
     1    31    32    1
     2    32    33   ar
     3    33    34   ar
     4    34    35   ar
     5    35    36   ar
     6    36    25    1
     7    25    26   ar
     8    26    27   ar
     9    27    28   ar
    10    28    24    1
    11    24    23    1
    12    23    22    1
    13    22     1    1
    14     1     2    1
    15     2     3    1
    16     3     4    1
    17     4     5    1
    18     5     6   ar
    19     6     7   ar
    20     7     8   ar
    21     8     9   ar
    22     9    16    1
    23    16    17    1
    24    17    18    1
    25    18    19    1
    26    19    20    1
    27    20    21    1
    28     9    10   ar
    29    10    11   ar
    30    11    12   ar
    31    12    13   ar
    32    13    14    1
    33    14    15    1
    34    28    29   ar
    35    29    30    1
    36    36    37   ar
    37    37    38   ar
    38    38    39   ar
    39    39    40   ar
    40    40    41   ar
    41    41    32   ar
    42    40    35   ar
    43    29    25   ar
    44    15     2    1
    45    13     5   ar
    46    11     7   ar
    47    21    16    1
@<TRIPOS>MOLECULE
*****
 41 47 0 0 0
SMALL
GASTEIGER

@<TRIPOS>ATOM
      1 C         141.8492  145.4468  157.8634 C.3     1  UNL1        0.0730
      2 N         141.7615  144.8143  159.2207 N.3     1  UNL1       -0.2720
      3 C         140.7726  145.4325  160.1641 C.3     1  UNL1        0.0768
      4 C         140.4521  145.0363  161.5749 C.3     1  UNL1        0.0434
      5 C         141.0414  143.9242  162.3907 C.ar    1  UNL1       -0.0230
      6 C         140.4378  143.8718  163.7630 C.ar    1  UNL1        0.0178
      7 C         140.8894  142.8287  164.7417 C.ar    1  UNL1        0.1198
      8 N         140.4798  142.5333  166.1541 N.ar    1  UNL1       -0.1946
      9 C         141.2819  141.3600  166.6336 C.ar    1  UNL1        0.2924
     10 O         142.1872  140.9302  165.5176 O.2     1  UNL1       -0.4237
     11 C         141.9447  141.8379  164.3483 C.ar    1  UNL1        0.1657
     12 C         142.5484  141.8903  162.9761 C.ar    1  UNL1        0.0346
     13 C         142.0968  142.9334  161.9974 C.ar    1  UNL1       -0.0216
     14 C         142.8234  142.8102  160.6909 C.3     1  UNL1        0.0434
     15 C         142.6741  143.6473  159.4552 C.3     1  UNL1        0.0768
     16 N         141.1941  140.7275  167.9910 N.pl3   1  UNL1       -0.2636
     17 C         139.9851  140.9575  168.8486 C.3     1  UNL1        0.0951
     18 C         139.8972  140.3250  170.2060 C.3     1  UNL1        0.0216
     19 C         141.0183  139.4627  170.7056 C.3     1  UNL1        0.0035
     20 C         142.2273  139.2328  169.8480 C.3     1  UNL1        0.0216
     21 C         142.3151  139.8652  168.4906 C.3     1  UNL1        0.0951
     22 C         141.1986  144.7859  156.6845 C.3     1  UNL1        0.0294
     23 C         139.7231  144.5160  156.6959 C.3     1  UNL1        0.0666
     24 S         139.2185  143.1136  156.8645 S.3     1  UNL1       -0.0756
     25 C         139.6467  141.0252  160.1081 C.ar    1  UNL1        0.1669
     26 N         138.6151  142.0246  160.5408 N.ar    1  UNL1       -0.1282
     27 N         138.3291  142.9284  159.3784 N.ar    1  UNL1       -0.1221
     28 C         139.1840  142.4878  158.2273 C.ar    1  UNL1        0.1932
     29 N         139.9983  141.3116  158.6783 N.ar    1  UNL1       -0.2884
     30 C         140.9901  140.5546  157.8456 C.3     1  UNL1        0.1340
     31 C         138.1159  138.9969  166.4950 C.3     1  UNL1        0.0521
     32 C         138.6432  139.2306  165.1103 C.ar    1  UNL1        0.0593
     33 C         138.0647  140.3243  164.2621 C.ar    1  UNL1        0.0147
     34 C         138.5921  140.5579  162.8775 C.ar    1  UNL1        0.0028
     35 C         139.6978  139.6980  162.3409 C.ar    1  UNL1        0.0206
     36 C         140.2251  139.9317  160.9562 C.ar    1  UNL1        0.0374
     37 C         141.3309  139.0717  160.4198 C.ar    1  UNL1        0.0031
     38 C         141.9093  137.9781  161.2680 C.ar    1  UNL1        0.0016
     39 C         141.3821  137.7445  162.6526 C.ar    1  UNL1        0.0191
     40 C         140.2763  138.6044  163.1891 C.ar    1  UNL1        0.0810
     41 N         139.7490  138.3707  164.5738 N.ar    1  UNL1       -0.2497
@<TRIPOS>BOND
     1    31    32    1
     2    32    33   ar
     3    33    34   ar
     4    34    35   ar
     5    35    36   ar
     6    36    25    1
     7    25    26   ar
     8    26    27   ar
     9    27    28   ar
    10    28    24    1
    11    24    23    1
    12    23    22    1
    13    22     1    1
    14     1     2    1
    15     2     3    1
    16     3     4    1
    17     4     5    1
    18     5     6   ar
    19     6     7   ar
    20     7     8   ar
    21     8     9   ar
    22     9    16    1
    23    16    17    1
    24    17    18    1
    25    18    19    1
    26    19    20    1
    27    20    21    1
    28     9    10   ar
    29    10    11   ar
    30    11    12   ar
    31    12    13   ar
    32    13    14    1
    33    14    15    1
    34    28    29   ar
    35    29    30    1
    36    36    37   ar
    37    37    38   ar
    38    38    39   ar
    39    39    40   ar
    40    40    41   ar
    41    41    32   ar
    42    40    35   ar
    43    29    25   ar
    44    15     2    1
    45    13     5   ar
    46    11     7   ar
    47    21    16    1
@<TRIPOS>MOLECULE
*****
 41 47 0 0 0
SMALL
GASTEIGER

@<TRIPOS>ATOM
      1 C         143.0611  140.5631  156.6124 C.3     1  UNL1        0.0730
      2 N         142.8153  140.4920  158.0904 N.3     1  UNL1       -0.2720
      3 C         143.0017  139.1418  158.7168 C.3     1  UNL1        0.0768
      4 C         142.8345  138.7465  160.1542 C.3     1  UNL1        0.0434
      5 C         142.4394  139.6037  161.3199 C.ar    1  UNL1       -0.0230
      6 C         142.3892  138.8099  162.5917 C.ar    1  UNL1        0.0178
      7 C         142.0137  139.4803  163.8799 C.ar    1  UNL1        0.1198
      8 N         141.8804  138.9601  165.2804 N.ar    1  UNL1       -0.1946
      9 C         141.4727  140.1028  166.1625 C.ar    1  UNL1        0.2924
     10 O         141.3540  141.3292  165.3071 O.2     1  UNL1       -0.4237
     11 C         141.6883  140.9445  163.8964 C.ar    1  UNL1        0.1657
     12 C         141.7385  141.7383  162.6246 C.ar    1  UNL1        0.0346
     13 C         142.1141  141.0679  161.3364 C.ar    1  UNL1       -0.0216
     14 C         142.1034  142.0365  160.1911 C.3     1  UNL1        0.0434
     15 C         142.4155  141.7801  158.7465 C.3     1  UNL1        0.0768
     16 N         141.2269  140.0315  167.6405 N.pl3   1  UNL1       -0.2636
     17 C         142.3407  139.6458  168.5683 C.3     1  UNL1        0.0951
     18 C         142.0949  139.5745  170.0463 C.3     1  UNL1        0.0216
     19 C         140.7354  139.8889  170.5966 C.3     1  UNL1        0.0035
     20 C         139.6215  140.2746  169.6688 C.3     1  UNL1        0.0216
     21 C         139.8673  140.3459  168.1908 C.3     1  UNL1        0.0951
     22 C         141.9689  140.1965  155.6519 C.3     1  UNL1        0.0294
     23 C         140.8130  141.1287  155.4392 C.3     1  UNL1        0.0666
     24 S         139.4426  140.7442  155.9126 S.3     1  UNL1       -0.0756
     25 C         138.7640  140.5194  159.7277 C.ar    1  UNL1        0.1669
     26 N         139.0032  139.0775  159.3903 N.ar    1  UNL1       -0.1282
     27 N         139.2865  138.9863  157.9202 N.ar    1  UNL1       -0.1221
     28 C         139.2224  140.3717  157.3489 C.ar    1  UNL1        0.1932
     29 N         138.8995  141.3192  158.4660 N.ar    1  UNL1       -0.2884
     30 C         138.7400  142.8057  158.3430 C.3     1  UNL1        0.1340
     31 C         138.5298  137.4432  165.8704 C.3     1  UNL1        0.0521
     32 C         138.5087  138.3488  164.6747 C.ar    1  UNL1        0.0593
     33 C         138.8274  137.8026  163.3145 C.ar    1  UNL1        0.0147
     34 C         138.8063  138.7083  162.1189 C.ar    1  UNL1        0.0028
     35 C         138.4664  140.1600  162.2835 C.ar    1  UNL1        0.0206
     36 C         138.4453  141.0655  161.0878 C.ar    1  UNL1        0.0374
     37 C         138.1055  142.5172  161.2525 C.ar    1  UNL1        0.0031
     38 C         137.7868  143.0633  162.6127 C.ar    1  UNL1        0.0016
     39 C         137.8079  142.1578  163.8082 C.ar    1  UNL1        0.0191
     40 C         138.1477  140.7061  163.6437 C.ar    1  UNL1        0.0810
     41 N         138.1688  139.8005  164.8394 N.ar    1  UNL1       -0.2497
@<TRIPOS>BOND
     1    31    32    1
     2    32    33   ar
     3    33    34   ar
     4    34    35   ar
     5    35    36   ar
     6    36    25    1
     7    25    26   ar
     8    26    27   ar
     9    27    28   ar
    10    28    24    1
    11    24    23    1
    12    23    22    1
    13    22     1    1
    14     1     2    1
    15     2     3    1
    16     3     4    1
    17     4     5    1
    18     5     6   ar
    19     6     7   ar
    20     7     8   ar
    21     8     9   ar
    22     9    16    1
    23    16    17    1
    24    17    18    1
    25    18    19    1
    26    19    20    1
    27    20    21    1
    28     9    10   ar
    29    10    11   ar
    30    11    12   ar
    31    12    13   ar
    32    13    14    1
    33    14    15    1
    34    28    29   ar
    35    29    30    1
    36    36    37   ar
    37    37    38   ar
    38    38    39   ar
    39    39    40   ar
    40    40    41   ar
    41    41    32   ar
    42    40    35   ar
    43    29    25   ar
    44    15     2    1
    45    13     5   ar
    46    11     7   ar
    47    21    16    1
