@<TRIPOS>MOLECULE
*****
 38 42 0 0 0
SMALL
GASTEIGER

@<TRIPOS>ATOM
      1 C         142.0206  144.2467  162.1344 C.2     1  UNL1        0.2352
      2 O         143.3530  144.9356  162.1416 O.2     1  UNL1       -0.2737
      3 N         141.5383  143.5594  160.8914 N.am    1  UNL1       -0.3011
      4 H         140.6638  143.1073  160.8867 H       1  UNL1        0.1497
      5 N         141.0117  145.6751  162.9469 N.3     1  UNL1       -0.3162
      6 C         141.1705  144.2449  163.3702 C.3     1  UNL1        0.1166
      7 C         141.6245  142.8152  163.3643 C.3     1  UNL1        0.0739
      8 C         141.1733  141.8806  164.4471 C.3     1  UNL1        0.2039
      9 N         140.2679  142.3755  165.5360 N.pl3   1  UNL1       -0.1931
     10 C         139.8139  143.8051  165.5420 C.3     1  UNL1        0.2039
     11 C         140.2652  144.7398  164.4590 C.3     1  UNL1        0.0739
     12 H         141.5471  145.8388  162.0943 H       1  UNL1        0.1192
     13 H         141.3541  146.2886  163.6865 H       1  UNL1        0.1192
     14 C         139.8167  141.4408  166.6189 C.2     1  UNL1        0.3205
     15 N         139.1093  140.1668  166.2633 N.2     1  UNL1        0.0097
     16 C         138.6580  139.2321  167.3461 C.2     1  UNL1        0.4717
     17 N         138.9142  139.5713  168.7847 N.2     1  UNL1        0.0158
     18 C         139.6216  140.8453  169.1403 C.2     1  UNL1        0.3714
     19 N         140.0112  141.4422  170.4601 N.2     1  UNL1       -0.0339
     20 C         140.7033  142.7459  170.1928 C.2     1  UNL1        0.2323
     21 C         140.7414  142.9547  168.7079 C.2     1  UNL1        0.0486
     22 C         140.0729  141.7800  168.0574 C.3     1  UNL1        0.2428
     23 C         142.3884  143.5611  159.6555 C.3     1  UNL1        0.0955
     24 C         141.9574  144.3425  158.4498 C.ar    1  UNL1       -0.0044
     25 C         140.8514  145.3494  158.5646 C.ar    1  UNL1       -0.0018
     26 C         140.4205  146.1308  157.3590 C.ar    1  UNL1        0.0111
     27 C         141.0955  145.9054  156.0385 C.ar    1  UNL1        0.0577
     28 CL        140.6645  146.6869  154.8328 Cl      1  UNL1       -0.0822
     29 C         142.2015  144.8986  155.9237 C.ar    1  UNL1        0.0111
     30 C         142.6325  144.1171  157.1294 C.ar    1  UNL1       -0.0018
     31 C         143.6694  142.7814  159.6254 C.3     1  UNL1        0.0414
     32 C         143.6932  141.3592  160.1018 C.3     1  UNL1        0.0741
     33 N         144.2211  141.0345  161.4677 N.3     1  UNL1       -0.2726
     34 C         143.8357  139.7473  162.1344 C.3     1  UNL1        0.0721
     35 C         144.3637  139.4228  163.5003 C.3     1  UNL1        0.0174
     36 C         145.2771  140.3855  164.1996 C.3     1  UNL1        0.0029
     37 C         145.6625  141.6727  163.5330 C.3     1  UNL1        0.0174
     38 C         145.1345  141.9973  162.1670 C.3     1  UNL1        0.0721
@<TRIPOS>BOND
     1     5     6    1
     2     6     1    1
     3     1     2    2
     4     1     3   am
     5     3    23    1
     6    23    31    1
     7    31    32    1
     8    32    33    1
     9    33    34    1
    10    34    35    1
    11    35    36    1
    12    36    37    1
    13    37    38    1
    14    23    24    1
    15    24    25   ar
    16    25    26   ar
    17    26    27   ar
    18    27    28    1
    19    27    29   ar
    20    29    30   ar
    21     6     7    1
    22     7     8    1
    23     8     9    1
    24     9    14    1
    25    14    15    2
    26    15    16    1
    27    16    17    2
    28    17    18    1
    29    18    19    2
    30    19    20    1
    31    20    21    2
    32    21    22    1
    33     9    10    1
    34    10    11    1
    35    11     6    1
    36    38    33    1
    37    30    24   ar
    38    22    14    1
    39    22    18    1
    40     5    12    1
    41     5    13    1
    42     3     4    1
@<TRIPOS>MOLECULE
*****
 38 42 0 0 0
SMALL
GASTEIGER

@<TRIPOS>ATOM
      1 C         143.2106  143.7679  162.9457 C.2     1  UNL1        0.2352
      2 O         144.0181  144.9891  162.6193 O.2     1  UNL1       -0.2737
      3 N         142.2232  143.2337  161.9509 N.am    1  UNL1       -0.3011
      4 H         141.6932  142.4322  162.1651 H       1  UNL1        0.1497
      5 N         144.8072  143.0728  163.7741 N.3     1  UNL1       -0.3162
      6 C         143.3905  143.0808  164.2668 C.3     1  UNL1        0.1166
      7 C         141.9113  143.3273  164.3007 C.3     1  UNL1        0.0739
      8 C         141.1040  142.8840  165.4845 C.3     1  UNL1        0.2039
      9 N         141.7758  142.1941  166.6347 N.pl3   1  UNL1       -0.1931
     10 C         143.2550  141.9475  166.6008 C.3     1  UNL1        0.2039
     11 C         144.0624  142.3909  165.4169 C.3     1  UNL1        0.0739
     12 H         144.8511  143.5193  162.8581 H       1  UNL1        0.1192
     13 H         145.1358  142.1101  163.6993 H       1  UNL1        0.1192
     14 C         140.9685  141.7507  167.8186 C.2     1  UNL1        0.3205
     15 N         141.2055  142.3720  169.1631 N.2     1  UNL1        0.0097
     16 C         140.3982  141.9287  170.3470 C.2     1  UNL1        0.4717
     17 N         139.3537  140.8641  170.1864 N.2     1  UNL1        0.0158
     18 C         139.1167  140.2428  168.8418 C.2     1  UNL1        0.3714
     19 N         138.1635  139.1802  168.3812 N.2     1  UNL1       -0.0339
     20 C         138.3818  138.9667  166.9126 C.2     1  UNL1        0.2323
     21 C         139.4698  139.8975  166.4656 C.2     1  UNL1        0.0486
     22 C         139.9240  140.6862  167.6579 C.3     1  UNL1        0.2428
     23 C         142.0432  143.9209  160.6297 C.3     1  UNL1        0.0955
     24 C         142.7913  143.4352  159.4237 C.ar    1  UNL1       -0.0044
     25 C         143.9739  142.5276  159.5900 C.ar    1  UNL1       -0.0018
     26 C         144.7221  142.0419  158.3841 C.ar    1  UNL1        0.0111
     27 C         144.2877  142.4640  157.0118 C.ar    1  UNL1        0.0577
     28 CL        145.0359  141.9783  155.8058 Cl      1  UNL1       -0.0822
     29 C         143.1051  143.3716  156.8454 C.ar    1  UNL1        0.0111
     30 C         142.3569  143.8573  158.0514 C.ar    1  UNL1       -0.0018
     31 C         141.1150  145.0936  160.5145 C.3     1  UNL1        0.0414
     32 C         139.6305  144.8784  160.5188 C.3     1  UNL1        0.0741
     33 N         138.9748  144.1974  161.6834 N.3     1  UNL1       -0.2726
     34 C         138.7921  144.9340  162.9772 C.3     1  UNL1        0.0721
     35 C         138.1363  144.2530  164.1417 C.3     1  UNL1        0.0174
     36 C         137.6632  142.8354  164.0124 C.3     1  UNL1        0.0029
     37 C         137.8459  142.0988  162.7185 C.3     1  UNL1        0.0174
     38 C         138.5017  142.7799  161.5540 C.3     1  UNL1        0.0721
@<TRIPOS>BOND
     1     5     6    1
     2     6     1    1
     3     1     2    2
     4     1     3   am
     5     3    23    1
     6    23    31    1
     7    31    32    1
     8    32    33    1
     9    33    34    1
    10    34    35    1
    11    35    36    1
    12    36    37    1
    13    37    38    1
    14    23    24    1
    15    24    25   ar
    16    25    26   ar
    17    26    27   ar
    18    27    28    1
    19    27    29   ar
    20    29    30   ar
    21     6     7    1
    22     7     8    1
    23     8     9    1
    24     9    14    1
    25    14    15    2
    26    15    16    1
    27    16    17    2
    28    17    18    1
    29    18    19    2
    30    19    20    1
    31    20    21    2
    32    21    22    1
    33     9    10    1
    34    10    11    1
    35    11     6    1
    36    38    33    1
    37    30    24   ar
    38    22    14    1
    39    22    18    1
    40     5    12    1
    41     5    13    1
    42     3     4    1
@<TRIPOS>MOLECULE
*****
 38 42 0 0 0
SMALL
GASTEIGER

@<TRIPOS>ATOM
      1 C         139.6272  140.7712  164.6539 C.2     1  UNL1        0.2352
      2 O         139.0165  140.4990  165.9966 O.2     1  UNL1       -0.2737
      3 N         141.0258  140.3157  164.3597 N.am    1  UNL1       -0.3011
      4 H         141.4267  140.4944  163.4785 H       1  UNL1        0.1497
      5 N         137.7591  141.2477  164.6148 N.3     1  UNL1       -0.3162
      6 C         138.8395  141.4990  163.6052 C.3     1  UNL1        0.1166
      7 C         140.1935  141.4975  162.9596 C.3     1  UNL1        0.0739
      8 C         140.3846  142.1365  161.6161 C.3     1  UNL1        0.2039
      9 N         139.2216  142.7770  160.9180 N.pl3   1  UNL1       -0.1931
     10 C         137.8676  142.7785  161.5634 C.3     1  UNL1        0.2039
     11 C         137.6766  142.1395  162.9070 C.3     1  UNL1        0.0739
     12 H         138.1491  140.7454  165.4123 H       1  UNL1        0.1192
     13 H         137.0196  140.6886  164.1894 H       1  UNL1        0.1192
     14 C         139.4127  143.4160  159.5744 C.2     1  UNL1        0.3205
     15 N         139.9892  144.7973  159.4760 N.2     1  UNL1        0.0097
     16 C         140.1803  145.4363  158.1326 C.2     1  UNL1        0.4717
     17 N         139.7949  144.6940  156.8873 N.2     1  UNL1        0.0158
     18 C         139.2184  143.3128  156.9857 C.2     1  UNL1        0.3714
     19 N         138.7493  142.3442  155.9408 N.2     1  UNL1       -0.0339
     20 C         138.2682  141.1066  156.6386 C.2     1  UNL1        0.2323
     21 C         138.4400  141.3103  158.1147 C.2     1  UNL1        0.0486
     22 C         139.0273  142.6738  158.3292 C.3     1  UNL1        0.2428
     23 C         141.8137  139.5879  165.4084 C.3     1  UNL1        0.0955
     24 C         142.3107  140.3229  166.6179 C.ar    1  UNL1       -0.0044
     25 C         142.3040  139.6511  167.9590 C.ar    1  UNL1       -0.0018
     26 C         142.8010  140.3861  169.1685 C.ar    1  UNL1        0.0111
     27 C         143.3047  141.7928  169.0367 C.ar    1  UNL1        0.0577
     28 CL        143.8017  142.5278  170.2463 Cl      1  UNL1       -0.0822
     29 C         143.3115  142.4646  167.6957 C.ar    1  UNL1        0.0111
     30 C         142.8144  141.7297  166.4861 C.ar    1  UNL1       -0.0018
     31 C         142.1045  138.1252  165.2476 C.3     1  UNL1        0.0414
     32 C         141.0835  137.2219  164.6217 C.3     1  UNL1        0.0741
     33 N         140.4376  137.6061  163.3235 N.3     1  UNL1       -0.2726
     34 C         138.9437  137.7007  163.2280 C.3     1  UNL1        0.0721
     35 C         138.2980  138.0848  161.9298 C.3     1  UNL1        0.0174
     36 C         139.1462  138.3743  160.7270 C.3     1  UNL1        0.0029
     37 C         140.6402  138.2797  160.8224 C.3     1  UNL1        0.0174
     38 C         141.2859  137.8956  162.1207 C.3     1  UNL1        0.0721
@<TRIPOS>BOND
     1     5     6    1
     2     6     1    1
     3     1     2    2
     4     1     3   am
     5     3    23    1
     6    23    31    1
     7    31    32    1
     8    32    33    1
     9    33    34    1
    10    34    35    1
    11    35    36    1
    12    36    37    1
    13    37    38    1
    14    23    24    1
    15    24    25   ar
    16    25    26   ar
    17    26    27   ar
    18    27    28    1
    19    27    29   ar
    20    29    30   ar
    21     6     7    1
    22     7     8    1
    23     8     9    1
    24     9    14    1
    25    14    15    2
    26    15    16    1
    27    16    17    2
    28    17    18    1
    29    18    19    2
    30    19    20    1
    31    20    21    2
    32    21    22    1
    33     9    10    1
    34    10    11    1
    35    11     6    1
    36    38    33    1
    37    30    24   ar
    38    22    14    1
    39    22    18    1
    40     5    12    1
    41     5    13    1
    42     3     4    1
@<TRIPOS>MOLECULE
*****
 38 42 0 0 0
SMALL
GASTEIGER

@<TRIPOS>ATOM
      1 C         141.6336  142.1788  162.8815 C.2     1  UNL1        0.2352
      2 O         142.2095  141.3336  161.7843 O.2     1  UNL1       -0.2737
      3 N         140.2976  142.8360  162.6994 N.am    1  UNL1       -0.3011
      4 H         139.9196  143.3907  163.4196 H       1  UNL1        0.1497
      5 N         143.2473  143.1756  163.2297 N.3     1  UNL1       -0.3162
      6 C         142.3937  142.3670  164.1609 C.3     1  UNL1        0.1166
      7 C         141.2761  141.4929  164.6479 C.3     1  UNL1        0.0739
      8 C         141.2149  141.0879  166.0908 C.3     1  UNL1        0.2039
      9 N         142.2714  141.5568  167.0469 N.pl3   1  UNL1       -0.1931
     10 C         143.3890  142.4308  166.5600 C.3     1  UNL1        0.2039
     11 C         143.4501  142.8359  165.1170 C.3     1  UNL1        0.0739
     12 H         142.8495  143.1451  162.2909 H       1  UNL1        0.1192
     13 H         144.1911  142.7893  163.2118 H       1  UNL1        0.1192
     14 C         142.2103  141.1517  168.4899 C.2     1  UNL1        0.3205
     15 N         143.0038  139.9738  168.9725 N.2     1  UNL1        0.0097
     16 C         142.9427  139.5687  170.4154 C.2     1  UNL1        0.4717
     17 N         142.0880  140.3415  171.3758 N.2     1  UNL1        0.0158
     18 C         141.2945  141.5194  170.8932 C.2     1  UNL1        0.3714
     19 N         140.3706  142.4653  171.6015 N.2     1  UNL1       -0.0339
     20 C         139.8608  143.4550  170.5963 C.2     1  UNL1        0.2323
     21 C         140.4695  143.1208  169.2667 C.2     1  UNL1        0.0486
     22 C         141.3556  141.9245  169.4503 C.3     1  UNL1        0.2428
     23 C         139.5375  142.6479  161.4200 C.3     1  UNL1        0.0955
     24 C         139.8818  143.4721  160.2149 C.ar    1  UNL1       -0.0044
     25 C         139.2861  143.1346  158.8803 C.ar    1  UNL1       -0.0018
     26 C         139.6304  143.9588  157.6752 C.ar    1  UNL1        0.0111
     27 C         140.5704  145.1205  157.8049 C.ar    1  UNL1        0.0577
     28 CL        140.9148  145.9447  156.5998 Cl      1  UNL1       -0.0822
     29 C         141.1662  145.4580  159.1394 C.ar    1  UNL1        0.0111
     30 C         140.8218  144.6338  160.3446 C.ar    1  UNL1       -0.0018
     31 C         138.4330  141.6356  161.3456 C.3     1  UNL1        0.0414
     32 C         137.6453  141.2935  162.5755 C.3     1  UNL1        0.0741
     33 N         138.0593  140.1343  163.4329 N.3     1  UNL1       -0.2726
     34 C         138.6298  138.8997  162.8004 C.3     1  UNL1        0.0721
     35 C         139.0437  137.7407  163.6578 C.3     1  UNL1        0.0174
     36 C         138.8872  137.8163  165.1477 C.3     1  UNL1        0.0029
     37 C         138.3167  139.0510  165.7802 C.3     1  UNL1        0.0174
     38 C         137.9027  140.2100  164.9227 C.3     1  UNL1        0.0721
@<TRIPOS>BOND
     1     5     6    1
     2     6     1    1
     3     1     2    2
     4     1     3   am
     5     3    23    1
     6    23    31    1
     7    31    32    1
     8    32    33    1
     9    33    34    1
    10    34    35    1
    11    35    36    1
    12    36    37    1
    13    37    38    1
    14    23    24    1
    15    24    25   ar
    16    25    26   ar
    17    26    27   ar
    18    27    28    1
    19    27    29   ar
    20    29    30   ar
    21     6     7    1
    22     7     8    1
    23     8     9    1
    24     9    14    1
    25    14    15    2
    26    15    16    1
    27    16    17    2
    28    17    18    1
    29    18    19    2
    30    19    20    1
    31    20    21    2
    32    21    22    1
    33     9    10    1
    34    10    11    1
    35    11     6    1
    36    38    33    1
    37    30    24   ar
    38    22    14    1
    39    22    18    1
    40     5    12    1
    41     5    13    1
    42     3     4    1
@<TRIPOS>MOLECULE
*****
 38 42 0 0 0
SMALL
GASTEIGER

@<TRIPOS>ATOM
      1 C         142.2500  140.4797  162.6466 C.2     1  UNL1        0.2352
      2 O         143.3423  141.1635  161.8790 O.2     1  UNL1       -0.2737
      3 N         140.9195  140.2330  161.9992 N.am    1  UNL1       -0.3011
      4 H         140.2026  139.7842  162.5030 H       1  UNL1        0.1497
      5 N         143.5881  139.2940  163.3692 N.3     1  UNL1       -0.3162
      6 C         142.4880  140.0425  164.0615 C.3     1  UNL1        0.1166
      7 C         141.3051  140.9429  164.2625 C.3     1  UNL1        0.0739
      8 C         140.7424  141.1461  165.6379 C.3     1  UNL1        0.2039
      9 N         141.3624  140.4490  166.8126 N.pl3   1  UNL1       -0.1931
     10 C         142.5452  139.5486  166.6117 C.3     1  UNL1        0.2039
     11 C         143.1080  139.3454  165.2361 C.3     1  UNL1        0.0739
     12 H         143.5582  139.4936  162.3694 H       1  UNL1        0.1192
     13 H         143.4653  138.2927  163.5199 H       1  UNL1        0.1192
     14 C         140.7997  140.6522  168.1881 C.2     1  UNL1        0.3205
     15 N         139.5157  139.9828  168.5795 N.2     1  UNL1        0.0097
     16 C         138.9529  140.1860  169.9549 C.2     1  UNL1        0.4717
     17 N         139.6741  141.0587  170.9391 N.2     1  UNL1        0.0158
     18 C         140.9580  141.7281  170.5476 C.2     1  UNL1        0.3714
     19 N         141.8851  142.6377  171.2981 N.2     1  UNL1       -0.0339
     20 C         143.0209  142.9966  170.3864 C.2     1  UNL1        0.2323
     21 C         142.7958  142.3088  169.0725 C.2     1  UNL1        0.0486
     22 C         141.5208  141.5249  169.1721 C.3     1  UNL1        0.2428
     23 C         140.6814  140.6702  160.5842 C.3     1  UNL1        0.0955
     24 C         140.8558  139.6944  159.4583 C.ar    1  UNL1       -0.0044
     25 C         142.2314  139.3578  158.9638 C.ar    1  UNL1       -0.0018
     26 C         142.4057  138.3821  157.8380 C.ar    1  UNL1        0.0111
     27 C         141.2045  137.7430  157.2067 C.ar    1  UNL1        0.0577
     28 CL        141.3789  136.7672  156.0808 Cl      1  UNL1       -0.0822
     29 C         139.8289  138.0795  157.7011 C.ar    1  UNL1        0.0111
     30 C         139.6545  139.0553  158.8270 C.ar    1  UNL1       -0.0018
     31 C         140.2690  142.0831  160.2951 C.3     1  UNL1        0.0414
     32 C         139.0083  142.6336  160.8931 C.3     1  UNL1        0.0741
     33 N         139.0411  143.2848  162.2440 N.3     1  UNL1       -0.2726
     34 C         137.8447  143.2036  163.1450 C.3     1  UNL1        0.0721
     35 C         137.8776  143.8548  164.4958 C.3     1  UNL1        0.0174
     36 C         139.1069  144.5871  164.9457 C.3     1  UNL1        0.0029
     37 C         140.3034  144.6683  164.0446 C.3     1  UNL1        0.0174
     38 C         140.2705  144.0171  162.6937 C.3     1  UNL1        0.0721
@<TRIPOS>BOND
     1     5     6    1
     2     6     1    1
     3     1     2    2
     4     1     3   am
     5     3    23    1
     6    23    31    1
     7    31    32    1
     8    32    33    1
     9    33    34    1
    10    34    35    1
    11    35    36    1
    12    36    37    1
    13    37    38    1
    14    23    24    1
    15    24    25   ar
    16    25    26   ar
    17    26    27   ar
    18    27    28    1
    19    27    29   ar
    20    29    30   ar
    21     6     7    1
    22     7     8    1
    23     8     9    1
    24     9    14    1
    25    14    15    2
    26    15    16    1
    27    16    17    2
    28    17    18    1
    29    18    19    2
    30    19    20    1
    31    20    21    2
    32    21    22    1
    33     9    10    1
    34    10    11    1
    35    11     6    1
    36    38    33    1
    37    30    24   ar
    38    22    14    1
    39    22    18    1
    40     5    12    1
    41     5    13    1
    42     3     4    1
@<TRIPOS>MOLECULE
*****
 38 42 0 0 0
SMALL
GASTEIGER

@<TRIPOS>ATOM
      1 C         141.3965  141.1265  162.5268 C.2     1  UNL1        0.2352
      2 O         141.6544  140.3397  161.2760 O.2     1  UNL1       -0.2737
      3 N         140.3097  142.1600  162.5521 N.am    1  UNL1       -0.3011
      4 H         140.1405  142.6764  163.3731 H       1  UNL1        0.1497
      5 N         143.0552  140.1637  162.7283 N.3     1  UNL1       -0.3162
      6 C         142.2255  140.8797  163.7524 C.3     1  UNL1        0.1166
      7 C         141.1078  141.6815  164.3509 C.3     1  UNL1        0.0739
      8 C         141.1072  141.9878  165.8192 C.3     1  UNL1        0.2039
      9 N         142.2243  141.4924  166.6892 N.pl3   1  UNL1       -0.1931
     10 C         143.3419  140.6907  166.0908 C.3     1  UNL1        0.2039
     11 C         143.3425  140.3844  164.6223 C.3     1  UNL1        0.0739
     12 H         142.6099  140.2430  161.8141 H       1  UNL1        0.1192
     13 H         143.1352  139.1794  162.9834 H       1  UNL1        0.1192
     14 C         142.2237  141.7988  168.1576 C.2     1  UNL1        0.3205
     15 N         143.3556  142.5755  168.7621 N.2     1  UNL1        0.0097
     16 C         143.3550  142.8819  170.2304 C.2     1  UNL1        0.4717
     17 N         142.2224  142.4115  171.0943 N.2     1  UNL1        0.0158
     18 C         141.0906  141.6348  170.4898 C.2     1  UNL1        0.3714
     19 N         139.8470  141.0447  171.0859 N.2     1  UNL1       -0.0339
     20 C         139.0791  140.3737  169.9860 C.2     1  UNL1        0.2323
     21 C         139.8480  140.5490  168.7100 C.2     1  UNL1        0.0486
     22 C         141.0912  141.3284  169.0214 C.3     1  UNL1        0.2428
     23 C         139.4807  142.4068  161.3266 C.3     1  UNL1        0.0955
     24 C         140.0029  143.2914  160.2335 C.ar    1  UNL1       -0.0044
     25 C         140.6301  144.6113  160.5721 C.ar    1  UNL1       -0.0018
     26 C         141.1523  145.4958  159.4790 C.ar    1  UNL1        0.0111
     27 C         141.0473  145.0605  158.0474 C.ar    1  UNL1        0.0577
     28 CL        141.5696  145.9451  156.9543 Cl      1  UNL1       -0.0822
     29 C         140.4202  143.7407  157.7088 C.ar    1  UNL1        0.0111
     30 C         139.8980  142.8560  158.8019 C.ar    1  UNL1       -0.0018
     31 C         138.1295  141.7690  161.1942 C.3     1  UNL1        0.0414
     32 C         137.4035  141.2896  162.4162 C.3     1  UNL1        0.0741
     33 N         137.9447  140.1344  163.2052 N.3     1  UNL1       -0.2726
     34 C         137.9994  140.2088  164.7024 C.3     1  UNL1        0.0721
     35 C         138.5407  139.0536  165.4913 C.3     1  UNL1        0.0174
     36 C         139.0272  137.8240  164.7832 C.3     1  UNL1        0.0029
     37 C         138.9725  137.7497  163.2860 C.3     1  UNL1        0.0174
     38 C         138.4313  138.9049  162.4970 C.3     1  UNL1        0.0721
@<TRIPOS>BOND
     1     5     6    1
     2     6     1    1
     3     1     2    2
     4     1     3   am
     5     3    23    1
     6    23    31    1
     7    31    32    1
     8    32    33    1
     9    33    34    1
    10    34    35    1
    11    35    36    1
    12    36    37    1
    13    37    38    1
    14    23    24    1
    15    24    25   ar
    16    25    26   ar
    17    26    27   ar
    18    27    28    1
    19    27    29   ar
    20    29    30   ar
    21     6     7    1
    22     7     8    1
    23     8     9    1
    24     9    14    1
    25    14    15    2
    26    15    16    1
    27    16    17    2
    28    17    18    1
    29    18    19    2
    30    19    20    1
    31    20    21    2
    32    21    22    1
    33     9    10    1
    34    10    11    1
    35    11     6    1
    36    38    33    1
    37    30    24   ar
    38    22    14    1
    39    22    18    1
    40     5    12    1
    41     5    13    1
    42     3     4    1
@<TRIPOS>MOLECULE
*****
 38 42 0 0 0
SMALL
GASTEIGER

@<TRIPOS>ATOM
      1 C         141.8326  140.0011  164.2770 C.2     1  UNL1        0.2352
      2 O         141.3758  141.4272  164.1889 O.2     1  UNL1       -0.2737
      3 N         141.4242  139.1536  165.4454 N.am    1  UNL1       -0.3011
      4 H         141.7240  138.2176  165.5032 H       1  UNL1        0.1497
      5 N         143.1678  138.6128  164.3687 N.3     1  UNL1       -0.3162
      6 C         142.6977  139.4225  163.1969 C.3     1  UNL1        0.1166
      7 C         141.9271  140.4332  162.4001 C.3     1  UNL1        0.0739
      8 C         142.1849  140.5841  160.9302 C.3     1  UNL1        0.2039
      9 N         143.2134  139.7243  160.2569 N.pl3   1  UNL1       -0.1931
     10 C         143.9839  138.7136  161.0537 C.3     1  UNL1        0.2039
     11 C         143.7260  138.5628  162.5236 C.3     1  UNL1        0.0739
     12 H         142.6580  138.8975  165.2051 H       1  UNL1        0.1192
     13 H         144.1661  138.7671  164.5100 H       1  UNL1        0.1192
     14 C         143.4712  139.8752  158.7870 C.2     1  UNL1        0.3205
     15 N         144.4231  140.9255  158.2964 N.2     1  UNL1        0.0097
     16 C         144.6809  141.0764  156.8266 C.2     1  UNL1        0.4717
     17 N         143.9867  140.1770  155.8471 N.2     1  UNL1        0.0158
     18 C         143.0348  139.1267  156.3376 C.2     1  UNL1        0.3714
     19 N         142.2106  138.1028  155.6149 N.2     1  UNL1       -0.0339
     20 C         141.4434  137.3191  156.6382 C.2     1  UNL1        0.2323
     21 C         141.7935  137.8586  157.9934 C.2     1  UNL1        0.0486
     22 C         142.7770  138.9758  157.8076 C.3     1  UNL1        0.2428
     23 C         140.5591  139.7322  166.5256 C.3     1  UNL1        0.0955
     24 C         141.1586  140.6320  167.5652 C.ar    1  UNL1       -0.0044
     25 C         142.4092  140.2193  168.2834 C.ar    1  UNL1       -0.0018
     26 C         143.0086  141.1192  169.3230 C.ar    1  UNL1        0.0111
     27 C         142.3575  142.4317  169.6444 C.ar    1  UNL1        0.0577
     28 CL        142.9571  143.3316  170.6841 Cl      1  UNL1       -0.0822
     29 C         141.1070  142.8445  168.9263 C.ar    1  UNL1        0.0111
     30 C         140.5075  141.9446  167.8866 C.ar    1  UNL1       -0.0018
     31 C         139.0944  139.4108  166.5661 C.3     1  UNL1        0.0414
     32 C         138.5108  138.4456  165.5773 C.3     1  UNL1        0.0741
     33 N         138.5448  138.7614  164.1113 N.3     1  UNL1       -0.2726
     34 C         138.0957  140.1068  163.6232 C.3     1  UNL1        0.0721
     35 C         138.1298  140.4226  162.1573 C.3     1  UNL1        0.0174
     36 C         138.6129  139.3929  161.1793 C.3     1  UNL1        0.0029
     37 C         139.0620  138.0475  161.6674 C.3     1  UNL1        0.0174
     38 C         139.0279  137.7318  163.1334 C.3     1  UNL1        0.0721
@<TRIPOS>BOND
     1     5     6    1
     2     6     1    1
     3     1     2    2
     4     1     3   am
     5     3    23    1
     6    23    31    1
     7    31    32    1
     8    32    33    1
     9    33    34    1
    10    34    35    1
    11    35    36    1
    12    36    37    1
    13    37    38    1
    14    23    24    1
    15    24    25   ar
    16    25    26   ar
    17    26    27   ar
    18    27    28    1
    19    27    29   ar
    20    29    30   ar
    21     6     7    1
    22     7     8    1
    23     8     9    1
    24     9    14    1
    25    14    15    2
    26    15    16    1
    27    16    17    2
    28    17    18    1
    29    18    19    2
    30    19    20    1
    31    20    21    2
    32    21    22    1
    33     9    10    1
    34    10    11    1
    35    11     6    1
    36    38    33    1
    37    30    24   ar
    38    22    14    1
    39    22    18    1
    40     5    12    1
    41     5    13    1
    42     3     4    1
@<TRIPOS>MOLECULE
*****
 38 42 0 0 0
SMALL
GASTEIGER

@<TRIPOS>ATOM
      1 C         141.9295  140.2366  162.6069 C.2     1  UNL1        0.2352
      2 O         141.6032  141.6367  162.1789 O.2     1  UNL1       -0.2737
      3 N         141.6556  139.0868  161.6832 N.am    1  UNL1       -0.3011
      4 H         141.8697  138.1679  161.9641 H       1  UNL1        0.1497
      5 N         143.2526  138.9455  163.1557 N.3     1  UNL1       -0.3162
      6 C         142.5297  139.9860  163.9585 C.3     1  UNL1        0.1166
      7 C         141.5983  141.1136  164.2920 C.3     1  UNL1        0.0739
      8 C         141.5182  141.6293  165.6982 C.3     1  UNL1        0.2039
      9 N         142.3694  141.0174  166.7711 N.pl3   1  UNL1       -0.1931
     10 C         143.3008  139.8898  166.4377 C.3     1  UNL1        0.2039
     11 C         143.3809  139.3742  165.0314 C.3     1  UNL1        0.0739
     12 H         142.9440  138.9903  162.1846 H       1  UNL1        0.1192
     13 H         143.0484  138.0209  163.5350 H       1  UNL1        0.1192
     14 C         142.2893  141.5331  168.1774 C.2     1  UNL1        0.3205
     15 N         143.4016  142.3720  168.7332 N.2     1  UNL1        0.0097
     16 C         143.3215  142.8877  170.1394 C.2     1  UNL1        0.4717
     17 N         142.1290  142.5646  170.9900 N.2     1  UNL1        0.0158
     18 C         141.0166  141.7257  170.4343 C.2     1  UNL1        0.3714
     19 N         139.7263  141.2469  171.0308 N.2     1  UNL1       -0.0339
     20 C         139.0089  140.4353  169.9931 C.2     1  UNL1        0.2323
     21 C         139.8559  140.4125  168.7553 C.2     1  UNL1        0.0486
     22 C         141.0968  141.2099  169.0280 C.3     1  UNL1        0.2428
     23 C         141.0554  139.3373  160.3315 C.3     1  UNL1        0.0955
     24 C         141.9453  139.5210  159.1381 C.ar    1  UNL1       -0.0044
     25 C         141.5356  138.9690  157.8049 C.ar    1  UNL1       -0.0018
     26 C         142.4255  139.1528  156.6115 C.ar    1  UNL1        0.0111
     27 C         143.7252  139.8885  156.7513 C.ar    1  UNL1        0.0577
     28 CL        144.6151  140.0722  155.5578 Cl      1  UNL1       -0.0822
     29 C         144.1349  140.4405  158.0844 C.ar    1  UNL1        0.0111
     30 C         143.2450  140.2568  159.2779 C.ar    1  UNL1       -0.0018
     31 C         139.5652  139.4040  160.1733 C.3     1  UNL1        0.0414
     32 C         138.6805  138.5555  161.0378 C.3     1  UNL1        0.0741
     33 N         138.5939  138.8214  162.5115 N.3     1  UNL1       -0.2726
     34 C         138.1317  140.1599  163.0062 C.3     1  UNL1        0.0721
     35 C         138.0451  140.4257  164.4798 C.3     1  UNL1        0.0174
     36 C         138.4207  139.3531  165.4588 C.3     1  UNL1        0.0029
     37 C         138.8829  138.0146  164.9641 C.3     1  UNL1        0.0174
     38 C         138.9695  137.7487  163.4904 C.3     1  UNL1        0.0721
@<TRIPOS>BOND
     1     5     6    1
     2     6     1    1
     3     1     2    2
     4     1     3   am
     5     3    23    1
     6    23    31    1
     7    31    32    1
     8    32    33    1
     9    33    34    1
    10    34    35    1
    11    35    36    1
    12    36    37    1
    13    37    38    1
    14    23    24    1
    15    24    25   ar
    16    25    26   ar
    17    26    27   ar
    18    27    28    1
    19    27    29   ar
    20    29    30   ar
    21     6     7    1
    22     7     8    1
    23     8     9    1
    24     9    14    1
    25    14    15    2
    26    15    16    1
    27    16    17    2
    28    17    18    1
    29    18    19    2
    30    19    20    1
    31    20    21    2
    32    21    22    1
    33     9    10    1
    34    10    11    1
    35    11     6    1
    36    38    33    1
    37    30    24   ar
    38    22    14    1
    39    22    18    1
    40     5    12    1
    41     5    13    1
    42     3     4    1
@<TRIPOS>MOLECULE
*****
 38 42 0 0 0
SMALL
GASTEIGER

@<TRIPOS>ATOM
      1 C         143.3225  141.3961  162.8850 C.2     1  UNL1        0.2352
      2 O         144.7196  141.7512  162.4701 O.2     1  UNL1       -0.2737
      3 N         142.1556  141.8614  162.0653 N.am    1  UNL1       -0.3011
      4 H         141.2387  141.6284  162.3376 H       1  UNL1        0.1497
      5 N         143.9147  139.6123  163.3162 N.3     1  UNL1       -0.3162
      6 C         143.0923  140.5758  164.1194 C.3     1  UNL1        0.1166
      7 C         142.3497  141.8242  164.4940 C.3     1  UNL1        0.0739
      8 C         141.6626  141.9176  165.8240 C.3     1  UNL1        0.2039
      9 N         141.7179  140.7626  166.7796 N.pl3   1  UNL1       -0.1931
     10 C         142.4604  139.5143  166.4051 C.3     1  UNL1        0.2039
     11 C         143.1475  139.4209  165.0750 C.3     1  UNL1        0.0739
     12 H         144.1581  140.0369  162.4213 H       1  UNL1        0.1192
     13 H         143.3779  138.7604  163.1536 H       1  UNL1        0.1192
     14 C         141.0307  140.8561  168.1097 C.2     1  UNL1        0.3205
     15 N         139.7171  140.1648  168.3254 N.2     1  UNL1        0.0097
     16 C         139.0299  140.2583  169.6553 C.2     1  UNL1        0.4717
     17 N         139.6563  141.0431  170.7698 N.2     1  UNL1        0.0158
     18 C         140.9699  141.7344  170.5540 C.2     1  UNL1        0.3714
     19 N         141.8228  142.5738  171.4585 N.2     1  UNL1       -0.0339
     20 C         143.0371  142.9990  170.6874 C.2     1  UNL1        0.2323
     21 C         142.9347  142.4225  169.3064 C.2     1  UNL1        0.0486
     22 C         141.6571  141.6409  169.2240 C.3     1  UNL1        0.2428
     23 C         142.3858  142.6818  160.8308 C.3     1  UNL1        0.0955
     24 C         143.1196  142.0909  159.6636 C.ar    1  UNL1       -0.0044
     25 C         144.1564  142.8998  158.9420 C.ar    1  UNL1       -0.0018
     26 C         144.8902  142.3089  157.7748 C.ar    1  UNL1        0.0111
     27 C         144.5871  140.9089  157.3293 C.ar    1  UNL1        0.0577
     28 CL        145.3210  140.3180  156.1620 Cl      1  UNL1       -0.0822
     29 C         143.5504  140.1000  158.0509 C.ar    1  UNL1        0.0111
     30 C         142.8166  140.6910  159.2181 C.ar    1  UNL1       -0.0018
     31 C         141.8822  144.0932  160.7635 C.3     1  UNL1        0.0414
     32 C         140.4077  144.3659  160.8006 C.3     1  UNL1        0.0741
     33 N         139.6430  144.1826  162.0780 N.3     1  UNL1       -0.2726
     34 C         140.0776  144.8995  163.3218 C.3     1  UNL1        0.0721
     35 C         139.3129  144.7161  164.5991 C.3     1  UNL1        0.0174
     36 C         138.1135  143.8159  164.6326 C.3     1  UNL1        0.0029
     37 C         137.6789  143.0990  163.3887 C.3     1  UNL1        0.0174
     38 C         138.4436  143.2824  162.1114 C.3     1  UNL1        0.0721
@<TRIPOS>BOND
     1     5     6    1
     2     6     1    1
     3     1     2    2
     4     1     3   am
     5     3    23    1
     6    23    31    1
     7    31    32    1
     8    32    33    1
     9    33    34    1
    10    34    35    1
    11    35    36    1
    12    36    37    1
    13    37    38    1
    14    23    24    1
    15    24    25   ar
    16    25    26   ar
    17    26    27   ar
    18    27    28    1
    19    27    29   ar
    20    29    30   ar
    21     6     7    1
    22     7     8    1
    23     8     9    1
    24     9    14    1
    25    14    15    2
    26    15    16    1
    27    16    17    2
    28    17    18    1
    29    18    19    2
    30    19    20    1
    31    20    21    2
    32    21    22    1
    33     9    10    1
    34    10    11    1
    35    11     6    1
    36    38    33    1
    37    30    24   ar
    38    22    14    1
    39    22    18    1
    40     5    12    1
    41     5    13    1
    42     3     4    1
