@<TRIPOS>MOLECULE
*****
 28 31 0 0 0
SMALL
GASTEIGER

@<TRIPOS>ATOM
      1 C         138.2997  139.3176  166.1023 C.3     1  UNL1        0.0340
      2 C         139.3646  139.7829  165.1539 C.ar    1  UNL1        0.0125
      3 C         139.1976  140.0018  163.6793 C.ar    1  UNL1        0.0924
      4 N         140.5133  140.4652  163.1277 N.ar    1  UNL1       -0.1671
      5 N         141.4933  140.5327  164.2613 N.ar    1  UNL1       -0.2119
      6 C         140.7834  140.1110  165.5135 C.ar    1  UNL1        0.0832
      7 C         142.9309  140.9489  164.1603 C.ar    1  UNL1        0.1743
      8 N         143.9924  139.9218  163.8989 N.ar    1  UNL1       -0.2243
      9 C         145.4300  140.3379  163.7979 C.ar    1  UNL1        0.1006
     10 C         145.8061  141.7810  163.9583 C.ar    1  UNL1        0.0217
     11 C         144.7446  142.8081  164.2197 C.ar    1  UNL1        0.0161
     12 C         143.3070  142.3920  164.3207 C.ar    1  UNL1        0.0934
     13 CL        142.2455  143.4191  164.5821 Cl      1  UNL1       -0.0790
     14 C         141.3863  140.0314  166.8847 C.ar    1  UNL1        0.0367
     15 C         140.8933  140.9363  167.9746 C.ar    1  UNL1        0.0055
     16 C         141.4963  140.8567  169.3457 C.ar    1  UNL1        0.0309
     17 C         142.5923  139.8720  169.6270 C.ar    1  UNL1        0.1384
     18 CL        143.1953  139.7924  170.9982 Cl      1  UNL1       -0.0613
     19 N         143.0854  138.9671  168.5371 N.ar    1  UNL1       -0.2324
     20 C         142.4825  139.0467  167.1659 C.ar    1  UNL1        0.1013
     21 C         137.9365  139.7938  162.8943 C.3     1  UNL1        0.1166
     22 N         137.0211  140.9513  162.6253 N.3     1  UNL1       -0.2935
     23 H         136.1486  140.7570  163.1166 H       1  UNL1        0.1236
     24 C         137.4352  142.3404  163.0109 C.3     1  UNL1        0.0543
     25 C         137.9580  143.3948  162.0809 C.3     1  UNL1        0.0157
     26 C         138.2452  144.6251  162.8895 C.3     1  UNL1        0.0014
     27 C         137.9000  144.3311  164.3193 C.3     1  UNL1        0.0014
     28 C         137.3994  142.9191  164.3943 C.3     1  UNL1        0.0157
@<TRIPOS>BOND
     1     1     2    1
     2     2     3   ar
     3     3    21    1
     4    21    22    1
     5    22    24    1
     6    24    25    1
     7    25    26    1
     8    26    27    1
     9    27    28    1
    10     3     4   ar
    11     4     5   ar
    12     5     7    1
    13     7     8   ar
    14     8     9   ar
    15     9    10   ar
    16    10    11   ar
    17    11    12   ar
    18    12    13    1
    19     5     6   ar
    20     6    14    1
    21    14    15   ar
    22    15    16   ar
    23    16    17   ar
    24    17    18    1
    25    17    19   ar
    26    19    20   ar
    27     6     2   ar
    28    20    14   ar
    29    28    24    1
    30    12     7   ar
    31    22    23    1
@<TRIPOS>MOLECULE
*****
 28 31 0 0 0
SMALL
GASTEIGER

@<TRIPOS>ATOM
      1 C         138.2657  139.3300  166.2589 C.3     1  UNL1        0.0340
      2 C         139.3158  139.8056  165.2991 C.ar    1  UNL1        0.0125
      3 C         139.1232  140.0501  163.8317 C.ar    1  UNL1        0.0924
      4 N         140.4312  140.5157  163.2639 N.ar    1  UNL1       -0.1671
      5 N         141.4320  140.5590  164.3803 N.ar    1  UNL1       -0.2119
      6 C         140.7427  140.1201  165.6381 C.ar    1  UNL1        0.0832
      7 C         142.8699  140.9692  164.2600 C.ar    1  UNL1        0.1743
      8 N         143.2877  142.3588  164.6401 N.ar    1  UNL1       -0.2243
      9 C         144.7255  142.7690  164.5198 C.ar    1  UNL1        0.1006
     10 C         145.7454  141.7896  164.0194 C.ar    1  UNL1        0.0217
     11 C         145.3276  140.4000  163.6393 C.ar    1  UNL1        0.0161
     12 C         143.8899  139.9898  163.7596 C.ar    1  UNL1        0.0934
     13 CL        143.4720  138.6003  163.3794 Cl      1  UNL1       -0.0790
     14 C         141.3701  140.0143  166.9965 C.ar    1  UNL1        0.0367
     15 C         140.8864  140.8873  168.1162 C.ar    1  UNL1        0.0055
     16 C         141.5137  140.7815  169.4746 C.ar    1  UNL1        0.0309
     17 C         142.6249  139.8026  169.7133 C.ar    1  UNL1        0.1384
     18 CL        143.2523  139.6967  171.0717 Cl      1  UNL1       -0.0613
     19 N         143.1086  138.9295  168.5935 N.ar    1  UNL1       -0.2324
     20 C         142.4813  139.0353  167.2352 C.ar    1  UNL1        0.1013
     21 C         137.8469  139.8620  163.0666 C.3     1  UNL1        0.1166
     22 N         136.9435  141.0328  162.8155 N.3     1  UNL1       -0.2935
     23 H         136.0976  140.8748  163.3631 H       1  UNL1        0.1236
     24 C         137.4111  142.4224  163.1322 C.3     1  UNL1        0.0543
     25 C         137.9279  143.4255  162.1438 C.3     1  UNL1        0.0157
     26 C         138.2803  144.6759  162.8937 C.3     1  UNL1        0.0014
     27 C         137.9814  144.4457  164.3454 C.3     1  UNL1        0.0014
     28 C         137.4442  143.0529  164.4928 C.3     1  UNL1        0.0157
@<TRIPOS>BOND
     1     1     2    1
     2     2     3   ar
     3     3    21    1
     4    21    22    1
     5    22    24    1
     6    24    25    1
     7    25    26    1
     8    26    27    1
     9    27    28    1
    10     3     4   ar
    11     4     5   ar
    12     5     7    1
    13     7     8   ar
    14     8     9   ar
    15     9    10   ar
    16    10    11   ar
    17    11    12   ar
    18    12    13    1
    19     5     6   ar
    20     6    14    1
    21    14    15   ar
    22    15    16   ar
    23    16    17   ar
    24    17    18    1
    25    17    19   ar
    26    19    20   ar
    27     6     2   ar
    28    20    14   ar
    29    28    24    1
    30    12     7   ar
    31    22    23    1
@<TRIPOS>MOLECULE
*****
 28 31 0 0 0
SMALL
GASTEIGER

@<TRIPOS>ATOM
      1 C         138.0385  138.7734  166.4273 C.3     1  UNL1        0.0340
      2 C         138.9534  139.9609  166.4816 C.ar    1  UNL1        0.0125
      3 C         139.6103  140.5123  167.7123 C.ar    1  UNL1        0.0924
      4 N         140.4349  141.6976  167.3060 N.ar    1  UNL1       -0.1671
      5 N         140.2877  141.8787  165.8242 N.ar    1  UNL1       -0.2119
      6 C         139.3721  140.8054  165.3147 C.ar    1  UNL1        0.0832
      7 C         140.9414  142.9458  164.9972 C.ar    1  UNL1        0.1743
      8 N         142.3583  142.7744  164.5357 N.ar    1  UNL1       -0.2243
      9 C         143.0120  143.8415  163.7087 C.ar    1  UNL1        0.1006
     10 C         142.2488  145.0800  163.3432 C.ar    1  UNL1        0.0217
     11 C         140.8319  145.2514  163.8047 C.ar    1  UNL1        0.0161
     12 C         140.1782  144.1843  164.6317 C.ar    1  UNL1        0.0934
     13 CL        138.7613  144.3557  165.0931 Cl      1  UNL1       -0.0790
     14 C         138.9494  140.6107  163.8888 C.ar    1  UNL1        0.0367
     15 C         139.7156  139.6763  163.0002 C.ar    1  UNL1        0.0055
     16 C         139.2929  139.4816  161.5742 C.ar    1  UNL1        0.0309
     17 C         138.1038  140.2213  161.0368 C.ar    1  UNL1        0.1384
     18 CL        137.6811  140.0266  159.6109 Cl      1  UNL1       -0.0613
     19 N         137.3375  141.1557  161.9255 N.ar    1  UNL1       -0.2324
     20 C         137.7602  141.3504  163.3514 C.ar    1  UNL1        0.1013
     21 C         139.4675  139.9731  169.1047 C.3     1  UNL1        0.1166
     22 N         140.6787  139.8140  169.9751 N.3     1  UNL1       -0.2935
     23 H         141.1744  138.9872  169.6417 H       1  UNL1        0.1236
     24 C         141.6895  140.9188  170.0630 C.3     1  UNL1        0.0543
     25 C         143.0898  140.8773  169.5267 C.3     1  UNL1        0.0157
     26 C         143.7432  142.1919  169.8348 C.3     1  UNL1        0.0014
     27 C         142.7468  143.0458  170.5614 C.3     1  UNL1        0.0014
     28 C         141.4776  142.2590  170.7024 C.3     1  UNL1        0.0157
@<TRIPOS>BOND
     1     1     2    1
     2     2     3   ar
     3     3    21    1
     4    21    22    1
     5    22    24    1
     6    24    25    1
     7    25    26    1
     8    26    27    1
     9    27    28    1
    10     3     4   ar
    11     4     5   ar
    12     5     7    1
    13     7     8   ar
    14     8     9   ar
    15     9    10   ar
    16    10    11   ar
    17    11    12   ar
    18    12    13    1
    19     5     6   ar
    20     6    14    1
    21    14    15   ar
    22    15    16   ar
    23    16    17   ar
    24    17    18    1
    25    17    19   ar
    26    19    20   ar
    27     6     2   ar
    28    20    14   ar
    29    28    24    1
    30    12     7   ar
    31    22    23    1
@<TRIPOS>MOLECULE
*****
 28 31 0 0 0
SMALL
GASTEIGER

@<TRIPOS>ATOM
      1 C         141.2755  137.1649  164.8084 C.3     1  UNL1        0.0340
      2 C         141.0031  138.4989  164.1789 C.ar    1  UNL1        0.0125
      3 C         141.4352  138.9323  162.8094 C.ar    1  UNL1        0.0924
      4 N         140.9500  140.3350  162.5926 N.ar    1  UNL1       -0.1671
      5 N         140.2181  140.7686  163.8281 N.ar    1  UNL1       -0.2119
      6 C         140.2510  139.6338  164.8085 C.ar    1  UNL1        0.0832
      7 C         139.5676  142.1027  164.0451 C.ar    1  UNL1        0.1743
      8 N         140.3725  143.2523  164.5748 N.ar    1  UNL1       -0.2243
      9 C         139.7221  144.5863  164.7918 C.ar    1  UNL1        0.1006
     10 C         138.2668  144.7709  164.4790 C.ar    1  UNL1        0.0217
     11 C         137.4619  143.6213  163.9493 C.ar    1  UNL1        0.0161
     12 C         138.1123  142.2872  163.7323 C.ar    1  UNL1        0.0934
     13 CL        137.3074  141.1377  163.2026 Cl      1  UNL1       -0.0790
     14 C         139.6391  139.6338  166.1780 C.ar    1  UNL1        0.0367
     15 C         140.2880  140.4042  167.2894 C.ar    1  UNL1        0.0055
     16 C         139.6761  140.4043  168.6589 C.ar    1  UNL1        0.0309
     17 C         138.4152  139.6338  168.9171 C.ar    1  UNL1        0.1384
     18 CL        137.8034  139.6338  170.2866 Cl      1  UNL1       -0.0613
     19 N         137.7663  138.8633  167.8056 N.ar    1  UNL1       -0.2324
     20 C         138.3782  138.8633  166.4361 C.ar    1  UNL1        0.1013
     21 C         142.2154  138.1078  161.8289 C.3     1  UNL1        0.1166
     22 N         143.6969  138.3022  161.6969 N.3     1  UNL1       -0.2935
     23 H         143.8939  138.3962  160.7006 H       1  UNL1        0.1236
     24 C         144.3656  139.4573  162.3814 C.3     1  UNL1        0.0543
     25 C         144.8972  139.4633  163.7841 C.3     1  UNL1        0.0157
     26 C         145.4803  140.8189  164.0530 C.3     1  UNL1        0.0014
     27 C         145.3091  141.6507  162.8166 C.3     1  UNL1        0.0014
     28 C         144.6202  140.8092  161.7835 C.3     1  UNL1        0.0157
@<TRIPOS>BOND
     1     1     2    1
     2     2     3   ar
     3     3    21    1
     4    21    22    1
     5    22    24    1
     6    24    25    1
     7    25    26    1
     8    26    27    1
     9    27    28    1
    10     3     4   ar
    11     4     5   ar
    12     5     7    1
    13     7     8   ar
    14     8     9   ar
    15     9    10   ar
    16    10    11   ar
    17    11    12   ar
    18    12    13    1
    19     5     6   ar
    20     6    14    1
    21    14    15   ar
    22    15    16   ar
    23    16    17   ar
    24    17    18    1
    25    17    19   ar
    26    19    20   ar
    27     6     2   ar
    28    20    14   ar
    29    28    24    1
    30    12     7   ar
    31    22    23    1
@<TRIPOS>MOLECULE
*****
 28 31 0 0 0
SMALL
GASTEIGER

@<TRIPOS>ATOM
      1 C         143.3513  139.0746  166.4187 C.3     1  UNL1        0.0340
      2 C         142.9082  139.4717  165.0417 C.ar    1  UNL1        0.0125
      3 C         143.7948  139.9737  163.9407 C.ar    1  UNL1        0.0924
      4 N         142.9352  140.2487  162.7425 N.ar    1  UNL1       -0.1671
      5 N         141.5175  139.9167  163.1030 N.ar    1  UNL1       -0.2119
      6 C         141.5009  139.4364  164.5239 C.ar    1  UNL1        0.0832
      7 C         140.3257  140.0427  162.2008 C.ar    1  UNL1        0.1743
      8 N         140.0495  138.9874  161.1713 N.ar    1  UNL1       -0.2243
      9 C         138.8578  139.1135  160.2692 C.ar    1  UNL1        0.1006
     10 C         137.9423  140.2948  160.3966 C.ar    1  UNL1        0.0217
     11 C         138.2186  141.3501  161.4261 C.ar    1  UNL1        0.0161
     12 C         139.4103  141.2241  162.3283 C.ar    1  UNL1        0.0934
     13 CL        139.6865  142.2794  163.3578 Cl      1  UNL1       -0.0790
     14 C         140.2895  138.9980  165.2923 C.ar    1  UNL1        0.0367
     15 C         139.5805  137.7310  164.9157 C.ar    1  UNL1        0.0055
     16 C         138.3691  137.2925  165.6841 C.ar    1  UNL1        0.0309
     17 C         137.8668  138.1211  166.8291 C.ar    1  UNL1        0.1384
     18 CL        136.6555  137.6827  167.5974 Cl      1  UNL1       -0.0613
     19 N         138.5759  139.3882  167.2057 N.ar    1  UNL1       -0.2324
     20 C         139.7872  139.8267  166.4374 C.ar    1  UNL1        0.1013
     21 C         145.2800  140.1667  164.0234 C.3     1  UNL1        0.1166
     22 N         145.8805  141.5061  163.7145 N.3     1  UNL1       -0.2935
     23 H         146.2897  141.4375  162.7827 H       1  UNL1        0.1236
     24 C         145.0185  142.7337  163.7195 C.3     1  UNL1        0.0543
     25 C         144.4966  143.4396  164.9359 C.3     1  UNL1        0.0157
     26 C         143.6826  144.6130  164.4773 C.3     1  UNL1        0.0014
     27 C         143.7013  144.6324  162.9775 C.3     1  UNL1        0.0014
     28 C         144.5269  143.4709  162.5092 C.3     1  UNL1        0.0157
@<TRIPOS>BOND
     1     1     2    1
     2     2     3   ar
     3     3    21    1
     4    21    22    1
     5    22    24    1
     6    24    25    1
     7    25    26    1
     8    26    27    1
     9    27    28    1
    10     3     4   ar
    11     4     5   ar
    12     5     7    1
    13     7     8   ar
    14     8     9   ar
    15     9    10   ar
    16    10    11   ar
    17    11    12   ar
    18    12    13    1
    19     5     6   ar
    20     6    14    1
    21    14    15   ar
    22    15    16   ar
    23    16    17   ar
    24    17    18    1
    25    17    19   ar
    26    19    20   ar
    27     6     2   ar
    28    20    14   ar
    29    28    24    1
    30    12     7   ar
    31    22    23    1
@<TRIPOS>MOLECULE
*****
 28 31 0 0 0
SMALL
GASTEIGER

@<TRIPOS>ATOM
      1 C         140.1767  143.0024  167.9656 C.3     1  UNL1        0.0340
      2 C         139.8794  141.7159  167.2537 C.ar    1  UNL1        0.0125
      3 C         139.6583  140.3808  167.9008 C.ar    1  UNL1        0.0924
      4 N         139.3932  139.3786  166.8167 N.ar    1  UNL1       -0.1671
      5 N         139.4505  140.0942  165.4997 N.ar    1  UNL1       -0.2119
      6 C         139.7510  141.5388  165.7697 C.ar    1  UNL1        0.0832
      7 C         139.2437  139.4741  164.1495 C.ar    1  UNL1        0.1743
      8 N         138.0649  139.8748  163.3129 N.ar    1  UNL1       -0.2243
      9 C         137.8580  139.2547  161.9628 C.ar    1  UNL1        0.1006
     10 C         138.8299  138.2340  161.4495 C.ar    1  UNL1        0.0217
     11 C         140.0086  137.8333  162.2861 C.ar    1  UNL1        0.0161
     12 C         140.2155  138.4534  163.6362 C.ar    1  UNL1        0.0934
     13 CL        141.3943  138.0527  164.4729 Cl      1  UNL1       -0.0790
     14 C         139.8973  142.6169  164.7372 C.ar    1  UNL1        0.0367
     15 C         138.7966  143.6154  164.5341 C.ar    1  UNL1        0.0055
     16 C         138.9430  144.6936  163.5016 C.ar    1  UNL1        0.0309
     17 C         140.1902  144.7732  162.6720 C.ar    1  UNL1        0.1384
     18 CL        140.3365  145.8513  161.6395 Cl      1  UNL1       -0.0613
     19 N         141.2910  143.7746  162.8751 N.ar    1  UNL1       -0.2324
     20 C         141.1446  142.6965  163.9076 C.ar    1  UNL1        0.1013
     21 C         139.6957  140.0977  169.3733 C.3     1  UNL1        0.1166
     22 N         141.0123  139.9208  170.0698 N.3     1  UNL1       -0.2935
     23 H         141.4816  139.1363  169.6174 H       1  UNL1        0.1236
     24 C         141.9979  141.0508  170.1090 C.3     1  UNL1        0.0543
     25 C         143.2159  141.1888  169.2444 C.3     1  UNL1        0.0157
     26 C         143.9093  142.4646  169.6206 C.3     1  UNL1        0.0014
     27 C         143.1199  143.1151  170.7177 C.3     1  UNL1        0.0014
     28 C         141.9386  142.2413  171.0195 C.3     1  UNL1        0.0157
@<TRIPOS>BOND
     1     1     2    1
     2     2     3   ar
     3     3    21    1
     4    21    22    1
     5    22    24    1
     6    24    25    1
     7    25    26    1
     8    26    27    1
     9    27    28    1
    10     3     4   ar
    11     4     5   ar
    12     5     7    1
    13     7     8   ar
    14     8     9   ar
    15     9    10   ar
    16    10    11   ar
    17    11    12   ar
    18    12    13    1
    19     5     6   ar
    20     6    14    1
    21    14    15   ar
    22    15    16   ar
    23    16    17   ar
    24    17    18    1
    25    17    19   ar
    26    19    20   ar
    27     6     2   ar
    28    20    14   ar
    29    28    24    1
    30    12     7   ar
    31    22    23    1
@<TRIPOS>MOLECULE
*****
 28 31 0 0 0
SMALL
GASTEIGER

@<TRIPOS>ATOM
      1 C         138.8090  139.3065  166.2455 C.3     1  UNL1        0.0340
      2 C         139.4363  140.1386  165.1666 C.ar    1  UNL1        0.0125
      3 C         139.1632  140.0269  163.6958 C.ar    1  UNL1        0.0924
      4 N         140.0049  141.0478  162.9893 N.ar    1  UNL1       -0.1671
      5 N         140.7982  141.7905  164.0233 N.ar    1  UNL1       -0.2119
      6 C         140.4467  141.2286  165.3689 C.ar    1  UNL1        0.0832
      7 C         141.7720  142.9003  163.7582 C.ar    1  UNL1        0.1743
      8 N         143.1487  142.5852  163.2527 N.ar    1  UNL1       -0.2243
      9 C         144.1224  143.6949  162.9876 C.ar    1  UNL1        0.1006
     10 C         143.7195  145.1196  163.2279 C.ar    1  UNL1        0.0217
     11 C         142.3428  145.4346  163.7334 C.ar    1  UNL1        0.0161
     12 C         141.3691  144.3250  163.9985 C.ar    1  UNL1        0.0934
     13 CL        139.9924  144.6400  164.5040 Cl      1  UNL1       -0.0790
     14 C         141.0073  141.6778  166.6857 C.ar    1  UNL1        0.0367
     15 C         140.2228  142.6161  167.5541 C.ar    1  UNL1        0.0055
     16 C         140.7834  143.0652  168.8709 C.ar    1  UNL1        0.0309
     17 C         142.1285  142.5760  169.3194 C.ar    1  UNL1        0.1384
     18 CL        142.6891  143.0252  170.6362 Cl      1  UNL1       -0.0613
     19 N         142.9131  141.6377  168.4510 N.ar    1  UNL1       -0.2324
     20 C         142.3525  141.1885  167.1342 C.ar    1  UNL1        0.1013
     21 C         138.2149  139.0634  163.0458 C.3     1  UNL1        0.1166
     22 N         138.7460  137.9395  162.2063 N.3     1  UNL1       -0.2935
     23 H         138.1179  137.8461  161.4081 H       1  UNL1        0.1236
     24 C         140.1394  138.0086  161.6553 C.3     1  UNL1        0.0543
     25 C         140.5255  138.5071  160.2942 C.3     1  UNL1        0.0157
     26 C         142.0161  138.3979  160.1662 C.3     1  UNL1        0.0014
     27 C         142.5511  137.8320  161.4482 C.3     1  UNL1        0.0014
     28 C         141.3913  137.5914  162.3685 C.3     1  UNL1        0.0157
@<TRIPOS>BOND
     1     1     2    1
     2     2     3   ar
     3     3    21    1
     4    21    22    1
     5    22    24    1
     6    24    25    1
     7    25    26    1
     8    26    27    1
     9    27    28    1
    10     3     4   ar
    11     4     5   ar
    12     5     7    1
    13     7     8   ar
    14     8     9   ar
    15     9    10   ar
    16    10    11   ar
    17    11    12   ar
    18    12    13    1
    19     5     6   ar
    20     6    14    1
    21    14    15   ar
    22    15    16   ar
    23    16    17   ar
    24    17    18    1
    25    17    19   ar
    26    19    20   ar
    27     6     2   ar
    28    20    14   ar
    29    28    24    1
    30    12     7   ar
    31    22    23    1
@<TRIPOS>MOLECULE
*****
 28 31 0 0 0
SMALL
GASTEIGER

@<TRIPOS>ATOM
      1 C         143.3768  138.3653  165.9948 C.3     1  UNL1        0.0340
      2 C         142.5049  139.2512  165.1552 C.ar    1  UNL1        0.0125
      3 C         142.3932  139.2168  163.6597 C.ar    1  UNL1        0.0924
      4 N         141.4109  140.2714  163.2440 N.ar    1  UNL1       -0.1671
      5 N         140.9155  140.9576  164.4825 N.ar    1  UNL1       -0.2119
      6 C         141.5916  140.3270  165.6637 C.ar    1  UNL1        0.0832
      7 C         139.9189  142.0776  164.5312 C.ar    1  UNL1        0.1743
      8 N         140.3890  143.4936  164.6864 N.ar    1  UNL1       -0.2243
      9 C         139.3925  144.6136  164.7351 C.ar    1  UNL1        0.1006
     10 C         137.9258  144.3177  164.6286 C.ar    1  UNL1        0.0217
     11 C         137.4557  142.9018  164.4734 C.ar    1  UNL1        0.0161
     12 C         138.4523  141.7817  164.4247 C.ar    1  UNL1        0.0934
     13 CL        137.9821  140.3658  164.2694 Cl      1  UNL1       -0.0790
     14 C         141.3900  140.7058  167.1010 C.ar    1  UNL1        0.0367
     15 C         140.1706  140.2350  167.8367 C.ar    1  UNL1        0.0055
     16 C         139.9690  140.6137  169.2740 C.ar    1  UNL1        0.0309
     17 C         140.9867  141.4634  169.9756 C.ar    1  UNL1        0.1384
     18 CL        140.7851  141.8421  171.4129 Cl      1  UNL1       -0.0613
     19 N         142.2062  141.9342  169.2398 N.ar    1  UNL1       -0.2324
     20 C         142.4078  141.5555  167.8025 C.ar    1  UNL1        0.1013
     21 C         143.1338  138.2905  162.7413 C.3     1  UNL1        0.1166
     22 N         144.2998  138.7974  161.9455 N.3     1  UNL1       -0.2935
     23 H         144.3217  138.2588  161.0795 H       1  UNL1        0.1236
     24 C         144.3705  140.2445  161.5573 C.3     1  UNL1        0.0543
     25 C         144.9938  141.3446  162.3645 C.3     1  UNL1        0.0157
     26 C         144.8389  142.6256  161.5998 C.3     1  UNL1        0.0014
     27 C         144.1199  142.3174  160.3199 C.3     1  UNL1        0.0014
     28 C         143.8304  140.8459  160.2937 C.3     1  UNL1        0.0157
@<TRIPOS>BOND
     1     1     2    1
     2     2     3   ar
     3     3    21    1
     4    21    22    1
     5    22    24    1
     6    24    25    1
     7    25    26    1
     8    26    27    1
     9    27    28    1
    10     3     4   ar
    11     4     5   ar
    12     5     7    1
    13     7     8   ar
    14     8     9   ar
    15     9    10   ar
    16    10    11   ar
    17    11    12   ar
    18    12    13    1
    19     5     6   ar
    20     6    14    1
    21    14    15   ar
    22    15    16   ar
    23    16    17   ar
    24    17    18    1
    25    17    19   ar
    26    19    20   ar
    27     6     2   ar
    28    20    14   ar
    29    28    24    1
    30    12     7   ar
    31    22    23    1
@<TRIPOS>MOLECULE
*****
 28 31 0 0 0
SMALL
GASTEIGER

@<TRIPOS>ATOM
      1 C         144.4852  143.5775  165.6053 C.3     1  UNL1        0.0340
      2 C         143.5704  142.6218  164.8984 C.ar    1  UNL1        0.0125
      3 C         143.3951  142.5043  163.4132 C.ar    1  UNL1        0.0924
      4 N         142.3867  141.4257  163.1495 N.ar    1  UNL1       -0.1671
      5 N         141.9388  140.8765  164.4715 N.ar    1  UNL1       -0.2119
      6 C         142.6704  141.6157  165.5524 C.ar    1  UNL1        0.0832
      7 C         140.9354  139.7804  164.6767 C.ar    1  UNL1        0.1743
      8 N         141.3313  138.3504  164.4569 N.ar    1  UNL1       -0.2243
      9 C         140.3281  137.2544  164.6620 C.ar    1  UNL1        0.1006
     10 C         138.9289  137.5884  165.0870 C.ar    1  UNL1        0.0217
     11 C         138.5329  139.0184  165.3068 C.ar    1  UNL1        0.0161
     12 C         139.5362  140.1144  165.1016 C.ar    1  UNL1        0.0934
     13 CL        139.1403  141.5444  165.3214 Cl      1  UNL1       -0.0790
     14 C         142.5271  141.3888  167.0282 C.ar    1  UNL1        0.0367
     15 C         141.9281  142.4552  167.8964 C.ar    1  UNL1        0.0055
     16 C         141.7849  142.2283  169.3722 C.ar    1  UNL1        0.0309
     17 C         142.2407  140.9348  169.9798 C.ar    1  UNL1        0.1384
     18 CL        142.0974  140.7079  171.4556 Cl      1  UNL1       -0.0613
     19 N         142.8398  139.8684  169.1116 N.ar    1  UNL1       -0.2324
     20 C         142.9830  140.0953  167.6358 C.ar    1  UNL1        0.1013
     21 C         144.1037  143.3219  162.3743 C.3     1  UNL1        0.1166
     22 N         143.4491  144.5478  161.8098 N.3     1  UNL1       -0.2935
     23 H         143.6218  144.5374  160.8046 H       1  UNL1        0.1236
     24 C         141.9763  144.7638  161.9940 C.3     1  UNL1        0.0543
     25 C         141.3133  145.3223  163.2183 C.3     1  UNL1        0.0157
     26 C         139.8351  145.3629  162.9672 C.3     1  UNL1        0.0014
     27 C         139.5843  144.8296  161.5878 C.3     1  UNL1        0.0014
     28 C         140.9077  144.4594  160.9864 C.3     1  UNL1        0.0157
@<TRIPOS>BOND
     1     1     2    1
     2     2     3   ar
     3     3    21    1
     4    21    22    1
     5    22    24    1
     6    24    25    1
     7    25    26    1
     8    26    27    1
     9    27    28    1
    10     3     4   ar
    11     4     5   ar
    12     5     7    1
    13     7     8   ar
    14     8     9   ar
    15     9    10   ar
    16    10    11   ar
    17    11    12   ar
    18    12    13    1
    19     5     6   ar
    20     6    14    1
    21    14    15   ar
    22    15    16   ar
    23    16    17   ar
    24    17    18    1
    25    17    19   ar
    26    19    20   ar
    27     6     2   ar
    28    20    14   ar
    29    28    24    1
    30    12     7   ar
    31    22    23    1
