@<TRIPOS>MOLECULE
*****
 30 32 0 0 0
SMALL
GASTEIGER

@<TRIPOS>ATOM
      1 C         144.1973  141.2788  163.9348 C.3     1  UNL1        0.0051
      2 C         143.1136  140.4649  164.5776 C.3     1  UNL1        0.0217
      3 C         142.4391  139.3705  163.8048 C.3     1  UNL1        0.0967
      4 N         142.8482  139.0900  162.3892 N.am    1  UNL1       -0.2460
      5 C         142.1736  137.9956  161.6163 C.2     1  UNL1        0.4052
      6 O         142.5827  137.7151  160.2007 O.2     1  UNL1       -0.2262
      7 C         143.9318  139.9039  161.7464 C.3     1  UNL1        0.0967
      8 C         144.6064  140.9983  162.5192 C.3     1  UNL1        0.0217
      9 C         144.8719  142.3732  164.7077 C.3     1  UNL1        0.0216
     10 C         144.1162  143.6213  165.0555 C.3     1  UNL1        0.0938
     11 C         141.5189  143.5595  165.0353 C.3     1  UNL1        0.1152
     12 N         142.8147  143.9247  164.3740 N.am    1  UNL1       -0.2731
     13 C         142.8093  144.5932  163.0312 C.2     1  UNL1        0.2678
     14 O         144.1053  144.9584  162.3700 O.2     1  UNL1       -0.2682
     15 C         141.5080  144.8966  162.3497 C.ar    1  UNL1        0.1497
     16 C         140.8016  144.0130  161.3646 C.ar    1  UNL1        0.1468
     17 N         139.5416  144.7071  160.9397 N.ar    1  UNL1       -0.1272
     18 N         139.4692  146.0196  161.6623 N.ar    1  UNL1       -0.0671
     19 N         140.6845  146.1367  162.5337 N.ar    1  UNL1       -0.2521
     20 H         140.9032  146.8945  163.1229 H       1  UNL1        0.1908
     21 O         141.0899  137.1817  162.2591 O.3     1  UNL1       -0.4295
     22 C         139.6641  137.6426  162.1892 C.3     1  UNL1        0.2368
     23 C         139.1442  138.6276  163.1938 C.ar    1  UNL1        0.0230
     24 C         138.8423  138.1823  164.5940 C.ar    1  UNL1        0.0108
     25 C         138.3224  139.1674  165.5986 C.ar    1  UNL1        0.0583
     26 CL        138.0205  138.7221  166.9989 Cl      1  UNL1       -0.0822
     27 C         138.1043  140.5978  165.2031 C.ar    1  UNL1        0.0228
     28 C         138.4062  141.0431  163.8029 C.ar    1  UNL1        0.0583
     29 CL        138.1882  142.4734  163.4073 Cl      1  UNL1       -0.0822
     30 C         138.9262  140.0580  162.7982 C.ar    1  UNL1        0.0108
@<TRIPOS>BOND
     1    11    12    1
     2    12    10    1
     3    10     9    1
     4     9     1    1
     5     1     2    1
     6     2     3    1
     7     3     4    1
     8     4     5   am
     9     5     6    2
    10     5    21    1
    11    21    22    1
    12    22    23    1
    13    23    24   ar
    14    24    25   ar
    15    25    26    1
    16    25    27   ar
    17    27    28   ar
    18    28    29    1
    19    28    30   ar
    20     4     7    1
    21     7     8    1
    22    12    13   am
    23    13    14    2
    24    13    15    1
    25    15    16   ar
    26    16    17   ar
    27    17    18   ar
    28    18    19   ar
    29     8     1    1
    30    19    15   ar
    31    30    23   ar
    32    19    20    1
@<TRIPOS>MOLECULE
*****
 30 32 0 0 0
SMALL
GASTEIGER

@<TRIPOS>ATOM
      1 C         143.4475  143.4706  164.3679 C.3     1  UNL1        0.0051
      2 C         142.2547  142.8134  164.9964 C.3     1  UNL1        0.0217
      3 C         140.8710  143.2064  164.5711 C.3     1  UNL1        0.0967
      4 N         140.6802  144.2566  163.5173 N.am    1  UNL1       -0.2460
      5 C         139.2964  144.6496  163.0920 C.2     1  UNL1        0.4052
      6 O         139.1056  145.6999  162.0382 O.2     1  UNL1       -0.2262
      7 C         141.8730  144.9139  162.8888 C.3     1  UNL1        0.0967
      8 C         143.2567  144.5209  163.3141 C.3     1  UNL1        0.0217
      9 C         144.8313  143.0776  164.7932 C.3     1  UNL1        0.0216
     10 C         145.6109  142.0841  163.9839 C.3     1  UNL1        0.0938
     11 C         144.7513  139.6556  164.3205 C.3     1  UNL1        0.1152
     12 N         144.9332  140.8594  163.4444 N.am    1  UNL1       -0.2731
     13 C         144.4375  140.8387  162.0289 C.2     1  UNL1        0.2678
     14 O         144.6194  142.0426  161.1528 O.2     1  UNL1       -0.2682
     15 C         143.7598  139.6141  161.4894 C.ar    1  UNL1        0.1497
     16 C         142.2834  139.3490  161.4942 C.ar    1  UNL1        0.1468
     17 N         142.0507  138.0106  160.8581 N.ar    1  UNL1       -0.1272
     18 N         143.3833  137.4485  160.4603 N.ar    1  UNL1       -0.0671
     19 N         144.4396  138.4395  160.8504 N.ar    1  UNL1       -0.2521
     20 H         145.4088  138.3370  160.7115 H       1  UNL1        0.1908
     21 O         138.1036  143.9924  163.7205 O.3     1  UNL1       -0.4295
     22 C         137.4594  142.8127  163.0544 C.3     1  UNL1        0.2368
     23 C         137.8606  141.4206  163.4428 C.ar    1  UNL1        0.0230
     24 C         138.0669  141.0751  164.8878 C.ar    1  UNL1        0.0108
     25 C         138.4682  139.6830  165.2762 C.ar    1  UNL1        0.0583
     26 CL        138.6745  139.3375  166.7212 Cl      1  UNL1       -0.0822
     27 C         138.6631  138.6362  164.2196 C.ar    1  UNL1        0.0228
     28 C         138.4568  138.9817  162.7745 C.ar    1  UNL1        0.0583
     29 CL        138.6517  137.9351  161.7179 Cl      1  UNL1       -0.0822
     30 C         138.0555  140.3739  162.3862 C.ar    1  UNL1        0.0108
@<TRIPOS>BOND
     1    11    12    1
     2    12    10    1
     3    10     9    1
     4     9     1    1
     5     1     2    1
     6     2     3    1
     7     3     4    1
     8     4     5   am
     9     5     6    2
    10     5    21    1
    11    21    22    1
    12    22    23    1
    13    23    24   ar
    14    24    25   ar
    15    25    26    1
    16    25    27   ar
    17    27    28   ar
    18    28    29    1
    19    28    30   ar
    20     4     7    1
    21     7     8    1
    22    12    13   am
    23    13    14    2
    24    13    15    1
    25    15    16   ar
    26    16    17   ar
    27    17    18   ar
    28    18    19   ar
    29     8     1    1
    30    19    15   ar
    31    30    23   ar
    32    19    20    1
@<TRIPOS>MOLECULE
*****
 30 32 0 0 0
SMALL
GASTEIGER

@<TRIPOS>ATOM
      1 C         137.9611  142.5093  163.9684 C.3     1  UNL1        0.0051
      2 C         138.4780  141.4355  164.8792 C.3     1  UNL1        0.0217
      3 C         138.7678  140.0674  164.3369 C.3     1  UNL1        0.0967
      4 N         138.5407  139.7730  162.8837 N.am    1  UNL1       -0.2460
      5 C         138.8305  138.4048  162.3415 C.2     1  UNL1        0.4052
      6 O         138.6034  138.1104  160.8883 O.2     1  UNL1       -0.2262
      7 C         138.0238  140.8468  161.9729 C.3     1  UNL1        0.0967
      8 C         137.7340  142.2149  162.5152 C.3     1  UNL1        0.0217
      9 C         137.6712  143.8775  164.5107 C.3     1  UNL1        0.0216
     10 C         138.7985  144.8236  164.8006 C.3     1  UNL1        0.0938
     11 C         141.0933  143.6810  165.2228 C.3     1  UNL1        0.1152
     12 N         140.1895  144.4951  164.3452 N.am    1  UNL1       -0.2731
     13 C         140.6765  144.9806  163.0121 C.2     1  UNL1        0.2678
     14 O         139.7725  145.7948  162.1345 O.2     1  UNL1       -0.2682
     15 C         142.0673  144.6521  162.5567 C.ar    1  UNL1        0.1497
     16 C         142.4487  143.5518  161.6112 C.ar    1  UNL1        0.1468
     17 N         143.9381  143.5858  161.4369 N.ar    1  UNL1       -0.1272
     18 N         144.4773  144.7073  162.2746 N.ar    1  UNL1       -0.0671
     19 N         143.3211  145.3662  162.9667 N.ar    1  UNL1       -0.2521
     20 H         143.3755  146.1329  163.5819 H       1  UNL1        0.1908
     21 O         139.3475  137.3310  163.2523 O.3     1  UNL1       -0.4295
     22 C         140.8095  136.9958  163.2625 C.3     1  UNL1        0.2368
     23 C         141.7951  137.9563  163.8590 C.ar    1  UNL1        0.0230
     24 C         142.7729  138.6729  162.9756 C.ar    1  UNL1        0.0108
     25 C         143.7585  139.6334  163.5721 C.ar    1  UNL1        0.0583
     26 CL        144.7363  140.3500  162.6887 Cl      1  UNL1       -0.0822
     27 C         143.7663  139.8775  165.0521 C.ar    1  UNL1        0.0228
     28 C         142.7885  139.1610  165.9356 C.ar    1  UNL1        0.0583
     29 CL        142.7963  139.4050  167.4156 Cl      1  UNL1       -0.0822
     30 C         141.8029  138.2003  165.3390 C.ar    1  UNL1        0.0108
@<TRIPOS>BOND
     1    11    12    1
     2    12    10    1
     3    10     9    1
     4     9     1    1
     5     1     2    1
     6     2     3    1
     7     3     4    1
     8     4     5   am
     9     5     6    2
    10     5    21    1
    11    21    22    1
    12    22    23    1
    13    23    24   ar
    14    24    25   ar
    15    25    26    1
    16    25    27   ar
    17    27    28   ar
    18    28    29    1
    19    28    30   ar
    20     4     7    1
    21     7     8    1
    22    12    13   am
    23    13    14    2
    24    13    15    1
    25    15    16   ar
    26    16    17   ar
    27    17    18   ar
    28    18    19   ar
    29     8     1    1
    30    19    15   ar
    31    30    23   ar
    32    19    20    1
@<TRIPOS>MOLECULE
*****
 30 32 0 0 0
SMALL
GASTEIGER

@<TRIPOS>ATOM
      1 C         143.4406  143.5383  164.3736 C.3     1  UNL1        0.0051
      2 C         142.2550  142.8196  164.9462 C.3     1  UNL1        0.0217
      3 C         140.8687  143.1998  164.5176 C.3     1  UNL1        0.0967
      4 N         140.6680  144.2985  163.5164 N.am    1  UNL1       -0.2460
      5 C         139.2817  144.6786  163.0878 C.2     1  UNL1        0.4052
      6 O         139.0810  145.7774  162.0866 O.2     1  UNL1       -0.2262
      7 C         141.8536  145.0172  162.9438 C.3     1  UNL1        0.0967
      8 C         143.2399  144.6370  163.3724 C.3     1  UNL1        0.0217
      9 C         144.8269  143.1582  164.8022 C.3     1  UNL1        0.0216
     10 C         145.5778  142.0956  164.0559 C.3     1  UNL1        0.0938
     11 C         144.6312  141.7885  161.6559 C.3     1  UNL1        0.1152
     12 N         144.8702  141.2528  163.0365 N.am    1  UNL1       -0.2731
     13 C         144.4017  139.8744  163.3976 C.2     1  UNL1        0.2678
     14 O         144.6407  139.3387  164.7783 O.2     1  UNL1       -0.2682
     15 C         143.6941  139.0316  162.3783 C.ar    1  UNL1        0.1497
     16 C         142.2087  138.9292  162.1966 C.ar    1  UNL1        0.1468
     17 N         141.9443  137.9776  161.0677 N.ar    1  UNL1       -0.1272
     18 N         143.2664  137.4920  160.5516 N.ar    1  UNL1       -0.0671
     19 N         144.3478  138.1434  161.3616 N.ar    1  UNL1       -0.2521
     20 H         145.3165  138.0112  161.2462 H       1  UNL1        0.1908
     21 O         138.0961  143.9600  163.6604 O.3     1  UNL1       -0.4295
     22 C         137.5134  142.7810  162.9389 C.3     1  UNL1        0.2368
     23 C         137.8790  141.3885  163.3598 C.ar    1  UNL1        0.0230
     24 C         138.0224  140.3070  162.3303 C.ar    1  UNL1        0.0108
     25 C         138.3880  138.9145  162.7512 C.ar    1  UNL1        0.0583
     26 CL        138.5314  137.8331  161.7217 Cl      1  UNL1       -0.0822
     27 C         138.6103  138.6034  164.2017 C.ar    1  UNL1        0.0228
     28 C         138.4670  139.6849  165.2312 C.ar    1  UNL1        0.0583
     29 CL        138.6893  139.3738  166.6817 Cl      1  UNL1       -0.0822
     30 C         138.1013  141.0774  164.8103 C.ar    1  UNL1        0.0108
@<TRIPOS>BOND
     1    11    12    1
     2    12    10    1
     3    10     9    1
     4     9     1    1
     5     1     2    1
     6     2     3    1
     7     3     4    1
     8     4     5   am
     9     5     6    2
    10     5    21    1
    11    21    22    1
    12    22    23    1
    13    23    24   ar
    14    24    25   ar
    15    25    26    1
    16    25    27   ar
    17    27    28   ar
    18    28    29    1
    19    28    30   ar
    20     4     7    1
    21     7     8    1
    22    12    13   am
    23    13    14    2
    24    13    15    1
    25    15    16   ar
    26    16    17   ar
    27    17    18   ar
    28    18    19   ar
    29     8     1    1
    30    19    15   ar
    31    30    23   ar
    32    19    20    1
@<TRIPOS>MOLECULE
*****
 30 32 0 0 0
SMALL
GASTEIGER

@<TRIPOS>ATOM
      1 C         144.2057  141.5741  164.5680 C.3     1  UNL1        0.0051
      2 C         143.5108  140.2488  164.6709 C.3     1  UNL1        0.0217
      3 C         142.4076  140.0559  165.6686 C.3     1  UNL1        0.0967
      4 N         141.9992  141.1884  166.5635 N.am    1  UNL1       -0.2460
      5 C         140.8959  140.9955  167.5613 C.2     1  UNL1        0.4052
      6 O         140.4875  142.1280  168.4562 O.2     1  UNL1       -0.2262
      7 C         142.6941  142.5137  166.4606 C.3     1  UNL1        0.0967
      8 C         143.7974  142.7066  165.4628 C.3     1  UNL1        0.0217
      9 C         145.3091  141.7670  163.5701 C.3     1  UNL1        0.0216
     10 C         144.9839  142.1533  162.1577 C.3     1  UNL1        0.0938
     11 C         142.6102  141.6799  161.2133 C.3     1  UNL1        0.1152
     12 N         143.6053  142.6310  161.8093 N.am    1  UNL1       -0.2731
     13 C         143.2218  144.0599  162.0568 C.2     1  UNL1        0.2678
     14 O         144.2170  145.0110  162.6529 O.2     1  UNL1       -0.2682
     15 C         141.8433  144.5377  161.7084 C.ar    1  UNL1        0.1497
     16 C         140.5943  144.2770  162.4970 C.ar    1  UNL1        0.1468
     17 N         139.4508  144.9382  161.7862 N.ar    1  UNL1       -0.1272
     18 N         139.9932  145.6077  160.5583 N.ar    1  UNL1       -0.0671
     19 N         141.4719  145.3601  160.5103 N.ar    1  UNL1       -0.2521
     20 H         142.0900  145.6811  159.8145 H       1  UNL1        0.1908
     21 O         140.2010  139.6702  167.6642 O.3     1  UNL1       -0.4295
     22 C         138.8341  139.4921  167.0727 C.3     1  UNL1        0.2368
     23 C         138.6238  139.6818  165.5997 C.ar    1  UNL1        0.0230
     24 C         138.1063  140.9895  165.0782 C.ar    1  UNL1        0.0108
     25 C         137.8960  141.1792  163.6052 C.ar    1  UNL1        0.0583
     26 CL        137.3785  142.4870  163.0837 Cl      1  UNL1       -0.0822
     27 C         138.2032  140.0611  162.6536 C.ar    1  UNL1        0.0228
     28 C         138.7207  138.7533  163.1751 C.ar    1  UNL1        0.0583
     29 CL        139.0280  137.6352  162.2235 Cl      1  UNL1       -0.0822
     30 C         138.9310  138.5637  164.6481 C.ar    1  UNL1        0.0108
@<TRIPOS>BOND
     1    11    12    1
     2    12    10    1
     3    10     9    1
     4     9     1    1
     5     1     2    1
     6     2     3    1
     7     3     4    1
     8     4     5   am
     9     5     6    2
    10     5    21    1
    11    21    22    1
    12    22    23    1
    13    23    24   ar
    14    24    25   ar
    15    25    26    1
    16    25    27   ar
    17    27    28   ar
    18    28    29    1
    19    28    30   ar
    20     4     7    1
    21     7     8    1
    22    12    13   am
    23    13    14    2
    24    13    15    1
    25    15    16   ar
    26    16    17   ar
    27    17    18   ar
    28    18    19   ar
    29     8     1    1
    30    19    15   ar
    31    30    23   ar
    32    19    20    1
@<TRIPOS>MOLECULE
*****
 30 32 0 0 0
SMALL
GASTEIGER

@<TRIPOS>ATOM
      1 C         143.9307  141.2613  164.5716 C.3     1  UNL1        0.0051
      2 C         143.0363  140.6812  165.6268 C.3     1  UNL1        0.0217
      3 C         142.1702  139.4986  165.3087 C.3     1  UNL1        0.0967
      4 N         142.1985  138.8961  163.9353 N.am    1  UNL1       -0.2460
      5 C         141.3323  137.7134  163.6172 C.2     1  UNL1        0.4052
      6 O         141.3606  137.1109  162.2438 O.2     1  UNL1       -0.2262
      7 C         143.0929  139.4761  162.8801 C.3     1  UNL1        0.0967
      8 C         143.9590  140.6587  163.1983 C.3     1  UNL1        0.0217
      9 C         144.7969  142.4439  164.8897 C.3     1  UNL1        0.0216
     10 C         144.1934  143.8145  164.9740 C.3     1  UNL1        0.0938
     11 C         143.9046  144.8773  162.6209 C.3     1  UNL1        0.1152
     12 N         143.3036  144.3113  163.8732 N.am    1  UNL1       -0.2731
     13 C         141.8129  144.2419  164.0249 C.2     1  UNL1        0.2678
     14 O         141.2120  143.6759  165.2773 O.2     1  UNL1       -0.2682
     15 C         140.9232  144.7386  162.9242 C.ar    1  UNL1        0.1497
     16 C         140.2718  143.8952  161.8686 C.ar    1  UNL1        0.1468
     17 N         139.4746  144.8012  160.9778 N.ar    1  UNL1       -0.1272
     18 N         139.6334  146.2048  161.4829 N.ar    1  UNL1       -0.0671
     19 N         140.5286  146.1660  162.6858 N.ar    1  UNL1       -0.2521
     20 H         140.8082  146.9413  163.2243 H       1  UNL1        0.1908
     21 O         140.4379  137.1334  164.6724 O.3     1  UNL1       -0.4295
     22 C         139.0332  137.6371  164.8248 C.3     1  UNL1        0.2368
     23 C         138.5789  138.8382  164.0496 C.ar    1  UNL1        0.0230
     24 C         138.4830  140.1742  164.7247 C.ar    1  UNL1        0.0108
     25 C         138.0287  141.3753  163.9495 C.ar    1  UNL1        0.0583
     26 CL        137.9328  142.7114  164.6245 Cl      1  UNL1       -0.0822
     27 C         137.6703  141.2404  162.4991 C.ar    1  UNL1        0.0228
     28 C         137.7661  139.9043  161.8241 C.ar    1  UNL1        0.0583
     29 CL        137.4077  139.7693  160.3738 Cl      1  UNL1       -0.0822
     30 C         138.2205  138.7032  162.5993 C.ar    1  UNL1        0.0108
@<TRIPOS>BOND
     1    11    12    1
     2    12    10    1
     3    10     9    1
     4     9     1    1
     5     1     2    1
     6     2     3    1
     7     3     4    1
     8     4     5   am
     9     5     6    2
    10     5    21    1
    11    21    22    1
    12    22    23    1
    13    23    24   ar
    14    24    25   ar
    15    25    26    1
    16    25    27   ar
    17    27    28   ar
    18    28    29    1
    19    28    30   ar
    20     4     7    1
    21     7     8    1
    22    12    13   am
    23    13    14    2
    24    13    15    1
    25    15    16   ar
    26    16    17   ar
    27    17    18   ar
    28    18    19   ar
    29     8     1    1
    30    19    15   ar
    31    30    23   ar
    32    19    20    1
@<TRIPOS>MOLECULE
*****
 30 32 0 0 0
SMALL
GASTEIGER

@<TRIPOS>ATOM
      1 C         137.8923  142.3139  163.9600 C.3     1  UNL1        0.0051
      2 C         138.3503  141.2484  164.9112 C.3     1  UNL1        0.0217
      3 C         138.7453  139.8981  164.3910 C.3     1  UNL1        0.0967
      4 N         138.6823  139.6133  162.9197 N.am    1  UNL1       -0.2460
      5 C         139.0773  138.2630  162.3995 C.2     1  UNL1        0.4052
      6 O         139.0143  137.9782  160.9281 O.2     1  UNL1       -0.2262
      7 C         138.2243  140.6789  161.9685 C.3     1  UNL1        0.0967
      8 C         137.8294  142.0292  162.4886 C.3     1  UNL1        0.0217
      9 C         137.4973  143.6643  164.4802 C.3     1  UNL1        0.0216
     10 C         138.5473  144.7015  164.7477 C.3     1  UNL1        0.0938
     11 C         139.7182  145.5758  162.5995 C.3     1  UNL1        0.1152
     12 N         139.7623  144.7823  163.8716 N.am    1  UNL1       -0.2731
     13 C         141.0213  144.0695  164.2677 C.2     1  UNL1        0.2678
     14 O         141.0653  143.2759  165.5399 O.2     1  UNL1       -0.2682
     15 C         142.2361  144.1502  163.3916 C.ar    1  UNL1        0.1497
     16 C         143.4072  145.0663  163.5904 C.ar    1  UNL1        0.1468
     17 N         144.3881  144.8113  162.4846 N.ar    1  UNL1       -0.1272
     18 N         143.8232  143.7375  161.6024 N.ar    1  UNL1       -0.0671
     19 N         142.4933  143.3290  162.1630 N.ar    1  UNL1       -0.2521
     20 H         141.8943  142.6424  161.7901 H       1  UNL1        0.1908
     21 O         139.5352  137.1974  163.3507 O.3     1  UNL1       -0.4295
     22 C         141.0013  136.9609  163.5627 C.3     1  UNL1        0.2368
     23 C         141.8958  138.0997  163.9539 C.ar    1  UNL1        0.0230
     24 C         141.8511  138.6427  165.3514 C.ar    1  UNL1        0.0108
     25 C         142.7456  139.7814  165.7425 C.ar    1  UNL1        0.0583
     26 CL        142.7010  140.3244  167.1401 Cl      1  UNL1       -0.0822
     27 C         143.6848  140.3773  164.7361 C.ar    1  UNL1        0.0228
     28 C         143.7295  139.8344  163.3385 C.ar    1  UNL1        0.0583
     29 CL        144.6686  140.4302  162.3321 Cl      1  UNL1       -0.0822
     30 C         142.8349  138.6955  162.9474 C.ar    1  UNL1        0.0108
@<TRIPOS>BOND
     1    11    12    1
     2    12    10    1
     3    10     9    1
     4     9     1    1
     5     1     2    1
     6     2     3    1
     7     3     4    1
     8     4     5   am
     9     5     6    2
    10     5    21    1
    11    21    22    1
    12    22    23    1
    13    23    24   ar
    14    24    25   ar
    15    25    26    1
    16    25    27   ar
    17    27    28   ar
    18    28    29    1
    19    28    30   ar
    20     4     7    1
    21     7     8    1
    22    12    13   am
    23    13    14    2
    24    13    15    1
    25    15    16   ar
    26    16    17   ar
    27    17    18   ar
    28    18    19   ar
    29     8     1    1
    30    19    15   ar
    31    30    23   ar
    32    19    20    1
@<TRIPOS>MOLECULE
*****
 30 32 0 0 0
SMALL
GASTEIGER

@<TRIPOS>ATOM
      1 C         143.7293  141.6400  164.5793 C.3     1  UNL1        0.0051
      2 C         142.7897  141.1250  165.6290 C.3     1  UNL1        0.0217
      3 C         141.9838  139.8864  165.3716 C.3     1  UNL1        0.0967
      4 N         142.1175  139.1628  164.0646 N.am    1  UNL1       -0.2460
      5 C         141.3115  137.9241  163.8072 C.2     1  UNL1        0.4052
      6 O         141.4452  137.2004  162.5002 O.2     1  UNL1       -0.2262
      7 C         143.0571  139.6777  163.0149 C.3     1  UNL1        0.0967
      8 C         143.8630  140.9163  163.2722 C.3     1  UNL1        0.0217
      9 C         144.5353  142.8786  164.8366 C.3     1  UNL1        0.0216
     10 C         143.9630  144.2267  164.5122 C.3     1  UNL1        0.0938
     11 C         141.3947  144.5428  164.2800 C.3     1  UNL1        0.1152
     12 N         142.7401  144.3347  163.6503 N.am    1  UNL1       -0.2731
     13 C         142.8627  144.2345  162.1587 C.2     1  UNL1        0.2678
     14 O         144.2081  144.0263  161.5290 O.2     1  UNL1       -0.2682
     15 C         141.6398  144.3425  161.2967 C.ar    1  UNL1        0.1497
     16 C         140.6026  143.2768  161.1004 C.ar    1  UNL1        0.1468
     17 N         139.5612  143.8107  160.1621 N.ar    1  UNL1       -0.1272
     18 N         139.9549  145.2065  159.7786 N.ar    1  UNL1       -0.0671
     19 N         141.2395  145.5350  160.4798 N.ar    1  UNL1       -0.2521
     20 H         141.7332  146.3843  160.4152 H       1  UNL1        0.1908
     21 O         140.3719  137.4092  164.8569 O.3     1  UNL1       -0.4295
     22 C         138.9285  137.8170  164.8367 C.3     1  UNL1        0.2368
     23 C         138.4937  138.9961  164.0178 C.ar    1  UNL1        0.0230
     24 C         138.2077  138.8288  162.5549 C.ar    1  UNL1        0.0108
     25 C         137.7729  140.0079  161.7360 C.ar    1  UNL1        0.0583
     26 CL        137.4869  139.8406  160.2731 Cl      1  UNL1       -0.0822
     27 C         137.6240  141.3544  162.3801 C.ar    1  UNL1        0.0228
     28 C         137.9100  141.5218  163.8431 C.ar    1  UNL1        0.0583
     29 CL        137.7612  142.8682  164.4871 Cl      1  UNL1       -0.0822
     30 C         138.3448  140.3426  164.6619 C.ar    1  UNL1        0.0108
@<TRIPOS>BOND
     1    11    12    1
     2    12    10    1
     3    10     9    1
     4     9     1    1
     5     1     2    1
     6     2     3    1
     7     3     4    1
     8     4     5   am
     9     5     6    2
    10     5    21    1
    11    21    22    1
    12    22    23    1
    13    23    24   ar
    14    24    25   ar
    15    25    26    1
    16    25    27   ar
    17    27    28   ar
    18    28    29    1
    19    28    30   ar
    20     4     7    1
    21     7     8    1
    22    12    13   am
    23    13    14    2
    24    13    15    1
    25    15    16   ar
    26    16    17   ar
    27    17    18   ar
    28    18    19   ar
    29     8     1    1
    30    19    15   ar
    31    30    23   ar
    32    19    20    1
@<TRIPOS>MOLECULE
*****
 30 32 0 0 0
SMALL
GASTEIGER

@<TRIPOS>ATOM
      1 C         142.9359  140.3674  164.5943 C.3     1  UNL1        0.0051
      2 C         142.2232  141.6688  164.8146 C.3     1  UNL1        0.0217
      3 C         142.2337  142.7201  163.7448 C.3     1  UNL1        0.0967
      4 N         142.9569  142.4701  162.4546 N.am    1  UNL1       -0.2460
      5 C         142.9674  143.5215  161.3848 C.2     1  UNL1        0.4052
      6 O         143.6906  143.2715  160.0946 O.2     1  UNL1       -0.2262
      7 C         143.6696  141.1687  162.2343 C.3     1  UNL1        0.0967
      8 C         143.6590  140.1174  163.3041 C.3     1  UNL1        0.0217
      9 C         142.9254  139.3160  165.6642 C.3     1  UNL1        0.0216
     10 C         141.7577  139.2096  166.5997 C.3     1  UNL1        0.0938
     11 C         142.9251  140.7933  168.2966 C.3     1  UNL1        0.1152
     12 N         141.6966  140.0738  167.8242 N.am    1  UNL1       -0.2731
     13 C         140.4069  140.2186  168.5764 C.2     1  UNL1        0.2678
     14 O         139.1783  139.4990  168.1039 O.2     1  UNL1       -0.2682
     15 C         140.3456  141.0827  169.8008 C.ar    1  UNL1        0.1497
     16 C         139.9112  142.5177  169.8464 C.ar    1  UNL1        0.1468
     17 N         140.0051  142.9855  171.2685 N.ar    1  UNL1       -0.1272
     18 N         140.4977  141.8396  172.1018 N.ar    1  UNL1       -0.0671
     19 N         140.7081  140.6637  171.1947 N.ar    1  UNL1       -0.2521
     20 H         141.0280  139.7731  171.4665 H       1  UNL1        0.1908
     21 O         142.2547  144.8228  161.6051 O.3     1  UNL1       -0.4295
     22 C         140.7841  144.9287  161.3291 C.3     1  UNL1        0.2368
     23 C         139.7951  144.3696  162.3085 C.ar    1  UNL1        0.0230
     24 C         139.5592  145.0654  163.6163 C.ar    1  UNL1        0.0108
     25 C         138.5702  144.5063  164.5957 C.ar    1  UNL1        0.0583
     26 CL        138.3344  145.2021  165.9034 Cl      1  UNL1       -0.0822
     27 C         137.8170  143.2514  164.2673 C.ar    1  UNL1        0.0228
     28 C         138.0528  142.5555  162.9595 C.ar    1  UNL1        0.0583
     29 CL        137.2996  141.3007  162.6312 Cl      1  UNL1       -0.0822
     30 C         139.0419  143.1147  161.9801 C.ar    1  UNL1        0.0108
@<TRIPOS>BOND
     1    11    12    1
     2    12    10    1
     3    10     9    1
     4     9     1    1
     5     1     2    1
     6     2     3    1
     7     3     4    1
     8     4     5   am
     9     5     6    2
    10     5    21    1
    11    21    22    1
    12    22    23    1
    13    23    24   ar
    14    24    25   ar
    15    25    26    1
    16    25    27   ar
    17    27    28   ar
    18    28    29    1
    19    28    30   ar
    20     4     7    1
    21     7     8    1
    22    12    13   am
    23    13    14    2
    24    13    15    1
    25    15    16   ar
    26    16    17   ar
    27    17    18   ar
    28    18    19   ar
    29     8     1    1
    30    19    15   ar
    31    30    23   ar
    32    19    20    1
