@<TRIPOS>MOLECULE
*****
 27 29 0 0 0
SMALL
GASTEIGER

@<TRIPOS>ATOM
      1 N         140.4450  141.7539  164.0510 N.pl3   1  UNL1       -0.3038
      2 C         140.2224  141.3434  165.4765 C.ar    1  UNL1        0.0490
      3 C         139.5099  140.0600  165.7848 C.ar    1  UNL1        0.0153
      4 C         139.2872  139.6495  167.2103 C.ar    1  UNL1        0.0124
      5 C         139.7770  140.5224  168.3274 C.ar    1  UNL1        0.0791
      6 C         140.4896  141.8060  168.0191 C.ar    1  UNL1        0.0685
      7 CL        140.9794  142.6789  169.1362 Cl      1  UNL1       -0.0815
      8 C         140.7122  142.2165  166.5936 C.ar    1  UNL1        0.0266
      9 C         139.5544  140.1119  169.7528 C.1     1  UNL1        0.1013
     10 N         139.3317  139.7014  171.1783 N.1     1  UNL1       -0.1908
     11 C         139.5284  146.3930  161.7018 C.3     1  UNL1        0.0897
     12 N         139.3225  145.0923  162.4198 N.3     1  UNL1       -0.2700
     13 C         138.0072  144.5391  162.8824 C.3     1  UNL1        0.0739
     14 C         138.2676  143.2212  163.5498 C.3     1  UNL1        0.0385
     15 C         139.7439  142.9599  163.4996 C.3     1  UNL1        0.0904
     16 C         140.3958  144.1163  162.8012 C.3     1  UNL1        0.0921
     17 C         141.3688  140.9585  163.1770 C.3     1  UNL1        0.1176
     18 C         142.8540  141.0818  163.3474 C.ar    1  UNL1        0.0015
     19 C         143.5769  142.2709  162.7878 C.ar    1  UNL1       -0.0027
     20 C         145.0621  142.3942  162.9581 C.ar    1  UNL1       -0.0003
     21 C         145.8243  141.3283  163.6881 C.ar    1  UNL1       -0.0001
     22 C         145.1014  140.1391  164.2478 C.ar    1  UNL1        0.0036
     23 C         143.6162  140.0158  164.0774 C.ar    1  UNL1        0.0691
     24 C         142.8932  138.8267  164.6371 C.3     1  UNL1        0.4183
     25 F         142.1702  137.6376  165.1967 F       1  UNL1       -0.1659
     26 F         142.8252  139.4984  165.9765 F       1  UNL1       -0.1659
     27 F         142.9613  138.1550  163.2976 F       1  UNL1       -0.1659
@<TRIPOS>BOND
     1    11    12    1
     2    12    13    1
     3    13    14    1
     4    14    15    1
     5    15     1    1
     6     1    17    1
     7    17    18    1
     8    18    19   ar
     9    19    20   ar
    10    20    21   ar
    11    21    22   ar
    12    22    23   ar
    13    23    24    1
    14    24    25    1
    15    24    26    1
    16    24    27    1
    17     1     2    1
    18     2     3   ar
    19     3     4   ar
    20     4     5   ar
    21     5     9    1
    22     9    10    3
    23     5     6   ar
    24     6     7    1
    25     6     8   ar
    26    15    16    1
    27    16    12    1
    28    23    18   ar
    29     8     2   ar
@<TRIPOS>MOLECULE
*****
 27 29 0 0 0
SMALL
GASTEIGER

@<TRIPOS>ATOM
      1 N         142.2439  139.4746  165.4697 N.pl3   1  UNL1       -0.3038
      2 C         141.8834  140.0227  166.8186 C.ar    1  UNL1        0.0490
      3 C         140.7880  141.0393  166.9468 C.ar    1  UNL1        0.0153
      4 C         140.4275  141.5874  168.2958 C.ar    1  UNL1        0.0124
      5 C         141.1624  141.1188  169.5165 C.ar    1  UNL1        0.0791
      6 C         142.2579  140.1021  169.3884 C.ar    1  UNL1        0.0685
      7 CL        142.9928  139.6335  170.6091 Cl      1  UNL1       -0.0815
      8 C         142.6184  139.5540  168.0394 C.ar    1  UNL1        0.0266
      9 C         140.8019  141.6668  170.8655 C.1     1  UNL1        0.1013
     10 N         140.4414  142.2149  172.2145 N.1     1  UNL1       -0.1908
     11 C         144.3968  143.0804  162.2691 C.3     1  UNL1        0.0897
     12 N         144.2109  141.8649  163.1280 N.3     1  UNL1       -0.2700
     13 C         145.2397  140.8055  163.3912 C.3     1  UNL1        0.0739
     14 C         144.6280  139.7811  164.3005 C.3     1  UNL1        0.0385
     15 C         143.2213  140.2075  164.5991 C.3     1  UNL1        0.0904
     16 C         142.9634  141.4953  163.8745 C.3     1  UNL1        0.0921
     17 C         141.6271  138.1938  164.9912 C.3     1  UNL1        0.1176
     18 C         140.7551  138.1913  163.7707 C.ar    1  UNL1        0.0015
     19 C         141.3718  138.0705  162.4087 C.ar    1  UNL1       -0.0027
     20 C         140.4999  138.0680  161.1881 C.ar    1  UNL1       -0.0003
     21 C         139.0113  138.1863  161.3296 C.ar    1  UNL1       -0.0001
     22 C         138.3945  138.3072  162.6916 C.ar    1  UNL1        0.0036
     23 C         139.2665  138.3097  163.9122 C.ar    1  UNL1        0.0691
     24 C         138.6498  138.4305  165.2742 C.3     1  UNL1        0.4183
     25 F         138.0331  138.5513  166.6362 F       1  UNL1       -0.1659
     26 F         138.7694  136.9469  165.4599 F       1  UNL1       -0.1659
     27 F         138.5302  139.9141  165.0884 F       1  UNL1       -0.1659
@<TRIPOS>BOND
     1    11    12    1
     2    12    13    1
     3    13    14    1
     4    14    15    1
     5    15     1    1
     6     1    17    1
     7    17    18    1
     8    18    19   ar
     9    19    20   ar
    10    20    21   ar
    11    21    22   ar
    12    22    23   ar
    13    23    24    1
    14    24    25    1
    15    24    26    1
    16    24    27    1
    17     1     2    1
    18     2     3   ar
    19     3     4   ar
    20     4     5   ar
    21     5     9    1
    22     9    10    3
    23     5     6   ar
    24     6     7    1
    25     6     8   ar
    26    15    16    1
    27    16    12    1
    28    23    18   ar
    29     8     2   ar
@<TRIPOS>MOLECULE
*****
 27 29 0 0 0
SMALL
GASTEIGER

@<TRIPOS>ATOM
      1 N         140.5394  140.9531  166.0652 N.pl3   1  UNL1       -0.3038
      2 C         140.3452  142.1054  165.1247 C.ar    1  UNL1        0.0490
      3 C         141.5348  142.8500  164.5952 C.ar    1  UNL1        0.0153
      4 C         141.3406  144.0024  163.6548 C.ar    1  UNL1        0.0124
      5 C         139.9568  144.4101  163.2439 C.ar    1  UNL1        0.0791
      6 C         138.7671  143.6654  163.7734 C.ar    1  UNL1        0.0685
      7 CL        137.3834  144.0731  163.3624 Cl      1  UNL1       -0.0815
      8 C         138.9613  142.5131  164.7138 C.ar    1  UNL1        0.0266
      9 C         139.7626  145.5624  162.3034 C.1     1  UNL1        0.1013
     10 N         139.5684  146.7147  161.3630 N.1     1  UNL1       -0.1908
     11 C         139.8963  143.0340  170.8752 C.3     1  UNL1        0.0897
     12 N         139.9121  142.0646  169.7308 N.3     1  UNL1       -0.2700
     13 C         139.4824  140.6284  169.7858 C.3     1  UNL1        0.0739
     14 C         139.6652  140.0372  168.4193 C.3     1  UNL1        0.0385
     15 C         140.2077  141.1081  167.5198 C.3     1  UNL1        0.0904
     16 C         140.3603  142.3610  168.3303 C.3     1  UNL1        0.0921
     17 C         141.0653  139.6458  165.5510 C.3     1  UNL1        0.1176
     18 C         140.5576  139.0915  164.2529 C.ar    1  UNL1        0.0015
     19 C         141.3613  139.2639  162.9982 C.ar    1  UNL1       -0.0027
     20 C         140.8536  138.7096  161.7002 C.ar    1  UNL1       -0.0003
     21 C         139.5421  137.9830  161.6567 C.ar    1  UNL1       -0.0001
     22 C         138.7383  137.8106  162.9114 C.ar    1  UNL1        0.0036
     23 C         139.2460  138.3649  164.2095 C.ar    1  UNL1        0.0691
     24 C         138.4422  138.1925  165.4642 C.3     1  UNL1        0.4183
     25 F         137.6384  138.0201  166.7188 F       1  UNL1       -0.1659
     26 F         139.0592  136.8415  165.6738 F       1  UNL1       -0.1659
     27 F         137.8252  139.5435  165.2545 F       1  UNL1       -0.1659
@<TRIPOS>BOND
     1    11    12    1
     2    12    13    1
     3    13    14    1
     4    14    15    1
     5    15     1    1
     6     1    17    1
     7    17    18    1
     8    18    19   ar
     9    19    20   ar
    10    20    21   ar
    11    21    22   ar
    12    22    23   ar
    13    23    24    1
    14    24    25    1
    15    24    26    1
    16    24    27    1
    17     1     2    1
    18     2     3   ar
    19     3     4   ar
    20     4     5   ar
    21     5     9    1
    22     9    10    3
    23     5     6   ar
    24     6     7    1
    25     6     8   ar
    26    15    16    1
    27    16    12    1
    28    23    18   ar
    29     8     2   ar
@<TRIPOS>MOLECULE
*****
 27 29 0 0 0
SMALL
GASTEIGER

@<TRIPOS>ATOM
      1 N         141.4990  141.5291  166.2737 N.pl3   1  UNL1       -0.3038
      2 C         141.0854  142.5626  165.2683 C.ar    1  UNL1        0.0490
      3 C         142.1196  143.4344  164.6201 C.ar    1  UNL1        0.0153
      4 C         141.7060  144.4680  163.6147 C.ar    1  UNL1        0.0124
      5 C         140.2582  144.6297  163.2576 C.ar    1  UNL1        0.0791
      6 C         139.2239  143.7579  163.9059 C.ar    1  UNL1        0.0685
      7 CL        137.7760  143.9196  163.5487 Cl      1  UNL1       -0.0815
      8 C         139.6375  142.7243  164.9112 C.ar    1  UNL1        0.0266
      9 C         139.8446  145.6632  162.2522 C.1     1  UNL1        0.1013
     10 N         139.4310  146.6967  161.2468 N.1     1  UNL1       -0.1908
     11 C         139.5798  142.8912  171.0004 C.3     1  UNL1        0.0897
     12 N         139.9359  142.0930  169.7815 N.3     1  UNL1       -0.2700
     13 C         139.6046  140.6492  169.5452 C.3     1  UNL1        0.0739
     14 C         140.1499  140.2622  168.2024 C.3     1  UNL1        0.0385
     15 C         140.8181  141.4669  167.6088 C.3     1  UNL1        0.0904
     16 C         140.6859  142.5983  168.5847 C.3     1  UNL1        0.0921
     17 C         142.5934  140.5578  165.9440 C.3     1  UNL1        0.1176
     18 C         142.4322  139.6082  164.7941 C.ar    1  UNL1        0.0015
     19 C         141.1863  138.7818  164.6730 C.ar    1  UNL1       -0.0027
     20 C         141.0250  137.8321  163.5231 C.ar    1  UNL1       -0.0003
     21 C         142.1097  137.7089  162.4944 C.ar    1  UNL1       -0.0001
     22 C         143.3556  138.5354  162.6154 C.ar    1  UNL1        0.0036
     23 C         143.5169  139.4851  163.7653 C.ar    1  UNL1        0.0691
     24 C         144.7628  140.3115  163.8864 C.3     1  UNL1        0.4183
     25 F         146.0086  141.1380  164.0075 F       1  UNL1       -0.1659
     26 F         145.3980  139.2328  164.7126 F       1  UNL1       -0.1659
     27 F         144.1275  141.3903  163.0602 F       1  UNL1       -0.1659
@<TRIPOS>BOND
     1    11    12    1
     2    12    13    1
     3    13    14    1
     4    14    15    1
     5    15     1    1
     6     1    17    1
     7    17    18    1
     8    18    19   ar
     9    19    20   ar
    10    20    21   ar
    11    21    22   ar
    12    22    23   ar
    13    23    24    1
    14    24    25    1
    15    24    26    1
    16    24    27    1
    17     1     2    1
    18     2     3   ar
    19     3     4   ar
    20     4     5   ar
    21     5     9    1
    22     9    10    3
    23     5     6   ar
    24     6     7    1
    25     6     8   ar
    26    15    16    1
    27    16    12    1
    28    23    18   ar
    29     8     2   ar
@<TRIPOS>MOLECULE
*****
 27 29 0 0 0
SMALL
GASTEIGER

@<TRIPOS>ATOM
      1 N         142.8542  142.6104  164.8374 N.pl3   1  UNL1       -0.3038
      2 C         142.4043  142.5131  166.2650 C.ar    1  UNL1        0.0490
      3 C         140.9401  142.4917  166.5901 C.ar    1  UNL1        0.0153
      4 C         140.4902  142.3944  168.0177 C.ar    1  UNL1        0.0124
      5 C         141.5044  142.3186  169.1202 C.ar    1  UNL1        0.0791
      6 C         142.9687  142.3400  168.7952 C.ar    1  UNL1        0.0685
      7 CL        143.9829  142.2642  169.8977 Cl      1  UNL1       -0.0815
      8 C         143.4186  142.4373  167.3675 C.ar    1  UNL1        0.0266
      9 C         141.0545  142.2213  170.5479 C.1     1  UNL1        0.1013
     10 N         140.6046  142.1240  171.9755 N.1     1  UNL1       -0.1908
     11 C         139.5949  143.9806  160.9157 C.3     1  UNL1        0.0897
     12 N         140.5684  144.0576  162.0542 N.3     1  UNL1       -0.2700
     13 C         141.1405  145.3137  162.6416 C.3     1  UNL1        0.0739
     14 C         142.0665  144.9244  163.7558 C.3     1  UNL1        0.0385
     15 C         142.0665  143.4278  163.8568 C.3     1  UNL1        0.0904
     16 C         141.1407  142.8921  162.8052 C.3     1  UNL1        0.0921
     17 C         144.0918  141.8904  164.3903 C.3     1  UNL1        0.1176
     18 C         143.9978  140.8094  163.3547 C.ar    1  UNL1        0.0015
     19 C         144.2546  141.1288  161.9118 C.ar    1  UNL1       -0.0027
     20 C         144.1605  140.0478  160.8761 C.ar    1  UNL1       -0.0003
     21 C         143.8097  138.6474  161.2833 C.ar    1  UNL1       -0.0001
     22 C         143.5529  138.3280  162.7262 C.ar    1  UNL1        0.0036
     23 C         143.6469  139.4090  163.7619 C.ar    1  UNL1        0.0691
     24 C         143.3901  139.0896  165.2048 C.3     1  UNL1        0.4183
     25 F         143.1333  138.7702  166.6477 F       1  UNL1       -0.1659
     26 F         144.8406  138.7548  165.3889 F       1  UNL1       -0.1659
     27 F         141.9396  139.4244  165.0208 F       1  UNL1       -0.1659
@<TRIPOS>BOND
     1    11    12    1
     2    12    13    1
     3    13    14    1
     4    14    15    1
     5    15     1    1
     6     1    17    1
     7    17    18    1
     8    18    19   ar
     9    19    20   ar
    10    20    21   ar
    11    21    22   ar
    12    22    23   ar
    13    23    24    1
    14    24    25    1
    15    24    26    1
    16    24    27    1
    17     1     2    1
    18     2     3   ar
    19     3     4   ar
    20     4     5   ar
    21     5     9    1
    22     9    10    3
    23     5     6   ar
    24     6     7    1
    25     6     8   ar
    26    15    16    1
    27    16    12    1
    28    23    18   ar
    29     8     2   ar
@<TRIPOS>MOLECULE
*****
 27 29 0 0 0
SMALL
GASTEIGER

@<TRIPOS>ATOM
      1 N         141.3809  140.4370  164.8268 N.pl3   1  UNL1       -0.3038
      2 C         141.2231  140.7613  166.2828 C.ar    1  UNL1        0.0490
      3 C         139.9202  140.4898  166.9747 C.ar    1  UNL1        0.0153
      4 C         139.7623  140.8141  168.4307 C.ar    1  UNL1        0.0124
      5 C         140.9074  141.4099  169.1948 C.ar    1  UNL1        0.0791
      6 C         142.2104  141.6813  168.5029 C.ar    1  UNL1        0.0685
      7 CL        143.3554  142.2771  169.2670 Cl      1  UNL1       -0.0815
      8 C         142.3682  141.3570  167.0469 C.ar    1  UNL1        0.0266
      9 C         140.7496  141.7342  170.6508 C.1     1  UNL1        0.1013
     10 N         140.5917  142.0584  172.1068 N.1     1  UNL1       -0.1908
     11 C         137.6639  138.3832  161.6889 C.3     1  UNL1        0.0897
     12 N         138.7378  138.5212  162.7270 N.3     1  UNL1       -0.2700
     13 C         139.2786  137.4184  163.5881 C.3     1  UNL1        0.0739
     14 C         140.3346  138.0019  164.4796 C.3     1  UNL1        0.0385
     15 C         140.4463  139.4652  164.1693 C.3     1  UNL1        0.0904
     16 C         139.4595  139.7861  163.0862 C.3     1  UNL1        0.0921
     17 C         142.4732  141.0844  164.0284 C.3     1  UNL1        0.1176
     18 C         142.4822  142.5723  163.8380 C.ar    1  UNL1        0.0015
     19 C         141.2008  143.3472  163.9248 C.ar    1  UNL1       -0.0027
     20 C         141.2097  144.8350  163.7345 C.ar    1  UNL1       -0.0003
     21 C         142.5000  145.5480  163.4574 C.ar    1  UNL1       -0.0001
     22 C         143.7815  144.7730  163.3706 C.ar    1  UNL1        0.0036
     23 C         143.7726  143.2852  163.5610 C.ar    1  UNL1        0.0691
     24 C         145.0539  142.5103  163.4742 C.3     1  UNL1        0.4183
     25 F         146.3353  141.7353  163.3875 F       1  UNL1       -0.1659
     26 F         144.8192  142.2860  162.0098 F       1  UNL1       -0.1659
     27 F         145.2887  142.7345  164.9386 F       1  UNL1       -0.1659
@<TRIPOS>BOND
     1    11    12    1
     2    12    13    1
     3    13    14    1
     4    14    15    1
     5    15     1    1
     6     1    17    1
     7    17    18    1
     8    18    19   ar
     9    19    20   ar
    10    20    21   ar
    11    21    22   ar
    12    22    23   ar
    13    23    24    1
    14    24    25    1
    15    24    26    1
    16    24    27    1
    17     1     2    1
    18     2     3   ar
    19     3     4   ar
    20     4     5   ar
    21     5     9    1
    22     9    10    3
    23     5     6   ar
    24     6     7    1
    25     6     8   ar
    26    15    16    1
    27    16    12    1
    28    23    18   ar
    29     8     2   ar
@<TRIPOS>MOLECULE
*****
 27 29 0 0 0
SMALL
GASTEIGER

@<TRIPOS>ATOM
      1 N         140.5827  141.5328  164.7374 N.pl3   1  UNL1       -0.3038
      2 C         140.5808  141.6804  166.2301 C.ar    1  UNL1        0.0490
      3 C         140.2234  142.9972  166.8531 C.ar    1  UNL1        0.0153
      4 C         140.2214  143.1448  168.3458 C.ar    1  UNL1        0.0124
      5 C         140.5768  141.9756  169.2155 C.ar    1  UNL1        0.0791
      6 C         140.9342  140.6586  168.5926 C.ar    1  UNL1        0.0685
      7 CL        141.2896  139.4894  169.4623 Cl      1  UNL1       -0.0815
      8 C         140.9362  140.5110  167.0999 C.ar    1  UNL1        0.0266
      9 C         140.5748  142.1232  170.7083 C.1     1  UNL1        0.1013
     10 N         140.5728  142.2708  172.2010 N.1     1  UNL1       -0.1908
     11 C         140.0499  145.7839  161.6512 C.3     1  UNL1        0.0897
     12 N         139.7374  144.5588  162.4583 N.3     1  UNL1       -0.2700
     13 C         138.3795  143.9501  162.6473 C.3     1  UNL1        0.0739
     14 C         138.5310  142.7424  163.5241 C.3     1  UNL1        0.0385
     15 C         139.9824  142.6048  163.8769 C.3     1  UNL1        0.0904
     16 C         140.7280  143.7274  163.2183 C.3     1  UNL1        0.0921
     17 C         141.1850  140.3132  164.1051 C.3     1  UNL1        0.1176
     18 C         140.4381  139.5783  163.0318 C.ar    1  UNL1        0.0015
     19 C         140.8248  139.7553  161.5934 C.ar    1  UNL1       -0.0027
     20 C         140.0779  139.0204  160.5200 C.ar    1  UNL1       -0.0003
     21 C         138.9443  138.1086  160.8851 C.ar    1  UNL1       -0.0001
     22 C         138.5575  137.9315  162.3236 C.ar    1  UNL1        0.0036
     23 C         139.3044  138.6664  163.3969 C.ar    1  UNL1        0.0691
     24 C         138.9177  138.4894  164.8353 C.3     1  UNL1        0.4183
     25 F         138.5310  138.3124  166.2737 F       1  UNL1       -0.1659
     26 F         139.8568  137.3249  164.9445 F       1  UNL1       -0.1659
     27 F         137.9786  139.6539  164.7261 F       1  UNL1       -0.1659
@<TRIPOS>BOND
     1    11    12    1
     2    12    13    1
     3    13    14    1
     4    14    15    1
     5    15     1    1
     6     1    17    1
     7    17    18    1
     8    18    19   ar
     9    19    20   ar
    10    20    21   ar
    11    21    22   ar
    12    22    23   ar
    13    23    24    1
    14    24    25    1
    15    24    26    1
    16    24    27    1
    17     1     2    1
    18     2     3   ar
    19     3     4   ar
    20     4     5   ar
    21     5     9    1
    22     9    10    3
    23     5     6   ar
    24     6     7    1
    25     6     8   ar
    26    15    16    1
    27    16    12    1
    28    23    18   ar
    29     8     2   ar
@<TRIPOS>MOLECULE
*****
 27 29 0 0 0
SMALL
GASTEIGER

@<TRIPOS>ATOM
      1 N         143.0291  139.8757  165.2687 N.pl3   1  UNL1       -0.3038
      2 C         142.5446  140.2886  166.6269 C.ar    1  UNL1        0.0490
      3 C         141.8761  141.6184  166.8125 C.ar    1  UNL1        0.0153
      4 C         141.3916  142.0313  168.1707 C.ar    1  UNL1        0.0124
      5 C         141.5756  141.1144  169.3434 C.ar    1  UNL1        0.0791
      6 C         142.2442  139.7844  169.1579 C.ar    1  UNL1        0.0685
      7 CL        142.4282  138.8674  170.3305 Cl      1  UNL1       -0.0815
      8 C         142.7287  139.3715  167.7996 C.ar    1  UNL1        0.0266
      9 C         141.0912  141.5273  170.7016 C.1     1  UNL1        0.1013
     10 N         140.6067  141.9401  172.0598 N.1     1  UNL1       -0.1908
     11 C         144.4537  144.0857  162.4180 C.3     1  UNL1        0.0897
     12 N         144.4902  142.7648  163.1277 N.3     1  UNL1       -0.2700
     13 C         145.6619  141.8304  163.1918 C.3     1  UNL1        0.0739
     14 C         145.2572  140.6344  164.0017 C.3     1  UNL1        0.0385
     15 C         143.8354  140.8297  164.4380 C.3     1  UNL1        0.0904
     16 C         143.3614  142.1463  163.8978 C.3     1  UNL1        0.0921
     17 C         142.7074  138.5089  164.7411 C.3     1  UNL1        0.1176
     18 C         141.3903  138.2549  164.0698 C.ar    1  UNL1        0.0015
     19 C         140.1932  137.8709  164.8880 C.ar    1  UNL1       -0.0027
     20 C         138.8761  137.6170  164.2167 C.ar    1  UNL1       -0.0003
     21 C         138.7560  137.7470  162.7272 C.ar    1  UNL1       -0.0001
     22 C         139.9532  138.1310  161.9089 C.ar    1  UNL1        0.0036
     23 C         141.2703  138.3850  162.5802 C.ar    1  UNL1        0.0691
     24 C         142.4674  138.7690  161.7621 C.3     1  UNL1        0.4183
     25 F         143.6645  139.1530  160.9439 F       1  UNL1       -0.1659
     26 F         142.9519  137.3501  161.8050 F       1  UNL1       -0.1659
     27 F         141.9829  140.1879  161.7192 F       1  UNL1       -0.1659
@<TRIPOS>BOND
     1    11    12    1
     2    12    13    1
     3    13    14    1
     4    14    15    1
     5    15     1    1
     6     1    17    1
     7    17    18    1
     8    18    19   ar
     9    19    20   ar
    10    20    21   ar
    11    21    22   ar
    12    22    23   ar
    13    23    24    1
    14    24    25    1
    15    24    26    1
    16    24    27    1
    17     1     2    1
    18     2     3   ar
    19     3     4   ar
    20     4     5   ar
    21     5     9    1
    22     9    10    3
    23     5     6   ar
    24     6     7    1
    25     6     8   ar
    26    15    16    1
    27    16    12    1
    28    23    18   ar
    29     8     2   ar
@<TRIPOS>MOLECULE
*****
 27 29 0 0 0
SMALL
GASTEIGER

@<TRIPOS>ATOM
      1 N         141.6964  141.9667  166.0309 N.pl3   1  UNL1       -0.3038
      2 C         141.2126  142.9507  165.0073 C.ar    1  UNL1        0.0490
      3 C         142.2002  143.7489  164.2088 C.ar    1  UNL1        0.0153
      4 C         141.7164  144.7329  163.1853 C.ar    1  UNL1        0.0124
      5 C         140.2451  144.9187  162.9601 C.ar    1  UNL1        0.0791
      6 C         139.2575  144.1205  163.7586 C.ar    1  UNL1        0.0685
      7 CL        137.7862  144.3062  163.5334 Cl      1  UNL1       -0.0815
      8 C         139.7412  143.1364  164.7822 C.ar    1  UNL1        0.0266
      9 C         139.7614  145.9027  161.9365 C.1     1  UNL1        0.1013
     10 N         139.2777  146.8867  160.9130 N.1     1  UNL1       -0.1908
     11 C         141.1935  137.1917  163.8339 C.3     1  UNL1        0.0897
     12 N         141.7250  138.3476  164.6282 N.3     1  UNL1       -0.2700
     13 C         142.9871  138.3542  165.4390 C.3     1  UNL1        0.0739
     14 C         143.1299  139.7108  166.0631 C.3     1  UNL1        0.0385
     15 C         141.9562  140.5425  165.6380 C.3     1  UNL1        0.0904
     16 C         141.0879  139.7000  164.7512 C.3     1  UNL1        0.0921
     17 C         141.9203  142.4068  167.4472 C.3     1  UNL1        0.1176
     18 C         141.2416  141.6847  168.5732 C.ar    1  UNL1        0.0015
     19 C         139.9343  140.9879  168.3375 C.ar    1  UNL1       -0.0027
     20 C         139.2556  140.2658  169.4635 C.ar    1  UNL1       -0.0003
     21 C         139.8841  140.2404  170.8252 C.ar    1  UNL1       -0.0001
     22 C         141.1914  140.9372  171.0610 C.ar    1  UNL1        0.0036
     23 C         141.8701  141.6593  169.9350 C.ar    1  UNL1        0.0691
     24 C         143.1773  142.3561  170.1707 C.3     1  UNL1        0.4183
     25 F         144.4846  143.0529  170.4064 F       1  UNL1       -0.1659
     26 F         143.9036  141.0573  169.9823 F       1  UNL1       -0.1659
     27 F         142.4511  143.6549  170.3591 F       1  UNL1       -0.1659
@<TRIPOS>BOND
     1    11    12    1
     2    12    13    1
     3    13    14    1
     4    14    15    1
     5    15     1    1
     6     1    17    1
     7    17    18    1
     8    18    19   ar
     9    19    20   ar
    10    20    21   ar
    11    21    22   ar
    12    22    23   ar
    13    23    24    1
    14    24    25    1
    15    24    26    1
    16    24    27    1
    17     1     2    1
    18     2     3   ar
    19     3     4   ar
    20     4     5   ar
    21     5     9    1
    22     9    10    3
    23     5     6   ar
    24     6     7    1
    25     6     8   ar
    26    15    16    1
    27    16    12    1
    28    23    18   ar
    29     8     2   ar
