@<TRIPOS>MOLECULE
*****
 42 48 0 0 0
SMALL
GASTEIGER

@<TRIPOS>ATOM
      1 C         140.8638  141.3131  159.7421 C.3     1  UNL1        0.1205
      2 N         141.1831  140.2241  158.7613 N.3     1  UNL1       -0.2835
      3 C         142.4626  139.4516  158.8887 C.3     1  UNL1        0.1165
      4 C         143.4226  139.7681  159.9969 C.3     1  UNL1        0.0511
      5 C         143.1033  140.8571  160.9777 C.2     1  UNL1       -0.0038
      6 C         141.8239  141.6296  160.8503 C.2     1  UNL1        0.0753
      7 N         141.7803  142.6400  161.9581 N.2     1  UNL1       -0.2520
      8 C         143.0328  142.4920  162.7701 C.2     1  UNL1        0.0627
      9 C         143.5344  143.2183  163.9829 C.3     1  UNL1        0.0717
     10 C         144.8537  142.8425  164.5898 C.2     1  UNL1       -0.0198
     11 C         145.6713  141.7406  163.9839 C.2     1  UNL1       -0.0042
     12 C         145.1697  141.0143  162.7711 C.2     1  UNL1        0.0006
     13 C         143.8505  141.3900  162.1642 C.2     1  UNL1        0.0111
     14 H         141.1894  140.6536  157.8361 H       1  UNL1        0.1244
     15 C         137.6597  143.9598  162.9993 C.3     1  UNL1        0.1537
     16 N         138.6488  143.6432  161.9170 N.ar    1  UNL1       -0.2476
     17 C         139.1504  142.2771  161.5532 C.ar    1  UNL1        0.0943
     18 C         140.1215  142.4266  160.4199 C.ar    1  UNL1        0.0393
     19 C         140.2201  143.8849  160.0831 C.ar    1  UNL1        0.1193
     20 N         139.3099  144.6368  161.0084 N.ar    1  UNL1       -0.1679
     21 C         139.6459  141.3834  158.8693 C.ar    1  UNL1        0.0189
     22 C         138.5629  140.3550  159.0088 C.ar    1  UNL1        0.0965
     23 N         137.3450  140.4252  158.1359 N.ar    1  UNL1       -0.2425
     24 C         137.2101  141.5238  157.1236 C.ar    1  UNL1        0.0999
     25 C         138.2932  142.5522  156.9841 C.ar    1  UNL1        0.0329
     26 C         139.5110  142.4820  157.8569 C.ar    1  UNL1        0.0019
     27 C         138.1582  143.6509  155.9718 C.2     1  UNL1        0.0744
     28 O         136.7982  144.1520  155.5857 O.co2   1  UNL1       -0.5445
     29 O         139.3833  144.2482  155.3456 O.co2   1  UNL1       -0.5445
     30 C         142.7820  138.3625  157.9078 C.ar    1  UNL1        0.1318
     31 N         142.3385  136.9328  158.0026 N.ar    1  UNL1       -0.2298
     32 C         142.8833  136.1986  156.8134 C.ar    1  UNL1        0.0996
     33 C         143.6636  137.1747  155.9837 C.ar    1  UNL1        0.0927
     34 N         143.6009  138.5121  156.6601 N.ar    1  UNL1       -0.3386
     35 H         144.0232  139.3422  156.3411 H       1  UNL1        0.1672
     36 C         142.6831  134.7438  156.5076 C.ar    1  UNL1        0.0193
     37 C         143.4788  133.7064  157.2430 C.ar    1  UNL1        0.0039
     38 C         143.2785  132.2517  156.9373 C.ar    1  UNL1        0.0297
     39 C         142.2826  131.8343  155.8962 C.ar    1  UNL1        0.1401
     40 F         142.0824  130.3794  155.5904 F       1  UNL1       -0.2042
     41 C         141.4869  132.8716  155.1609 C.ar    1  UNL1        0.0297
     42 C         141.6871  134.3264  155.4666 C.ar    1  UNL1        0.0039
@<TRIPOS>UNITY_ATOM_ATTR
28 1
charge -1
@<TRIPOS>BOND
     1    15    16    1
     2    16    17   ar
     3    17    18   ar
     4     1    18    1
     5     1    21    1
     6    21    22   ar
     7    22    23   ar
     8    23    24   ar
     9    24    25   ar
    10    25    27    1
    11    27    28   ar
    12    27    29   ar
    13    25    26   ar
    14     1     2    1
    15     2     3    1
    16     3    30    1
    17    30    31   ar
    18    31    32   ar
    19    32    36    1
    20    36    37   ar
    21    37    38   ar
    22    38    39   ar
    23    39    40    1
    24    39    41   ar
    25    41    42   ar
    26    32    33   ar
    27    33    34   ar
    28     3     4    1
    29     4     5    1
    30     5     6    2
    31     6     7    1
    32     7     8    2
    33     8     9    1
    34     9    10    1
    35    10    11    2
    36    11    12    1
    37    12    13    2
    38    18    19   ar
    39    19    20   ar
    40    20    16   ar
    41     6     1    1
    42    13     8    1
    43    26    21   ar
    44    34    30   ar
    45    13     5    1
    46    42    36   ar
    47     2    14    1
    48    34    35    1
@<TRIPOS>MOLECULE
*****
 42 48 0 0 0
SMALL
GASTEIGER

@<TRIPOS>ATOM
      1 C         142.2366  142.6502  159.8383 C.3     1  UNL1        0.1205
      2 N         141.7168  143.3525  158.6191 N.3     1  UNL1       -0.2835
      3 C         140.5953  144.3408  158.7439 C.3     1  UNL1        0.1165
      4 C         139.9938  144.6269  160.0879 C.3     1  UNL1        0.0511
      5 C         140.5136  143.9247  161.3071 C.2     1  UNL1       -0.0038
      6 C         141.6350  142.9363  161.1823 C.2     1  UNL1        0.0753
      7 N         141.9367  142.4024  162.5512 N.2     1  UNL1       -0.2520
      8 C         141.0017  143.0607  163.5220 C.2     1  UNL1        0.0627
      9 C         140.8376  142.9251  165.0068 C.3     1  UNL1        0.0717
     10 C         139.7940  143.7302  165.7226 C.2     1  UNL1       -0.0198
     11 C         138.9144  144.6711  164.9537 C.2     1  UNL1       -0.0042
     12 C         139.0786  144.8068  163.4689 C.2     1  UNL1        0.0006
     13 C         140.1222  144.0016  162.7531 C.2     1  UNL1        0.0111
     14 H         141.4004  142.6281  157.9745 H       1  UNL1        0.1244
     15 C         143.9147  138.4079  162.4968 C.3     1  UNL1        0.1537
     16 N         143.8367  139.7887  161.9161 N.ar    1  UNL1       -0.2476
     17 C         142.7370  140.3174  161.0435 C.ar    1  UNL1        0.0943
     18 C         143.0653  141.7386  160.6941 C.ar    1  UNL1        0.0393
     19 C         144.3679  142.0884  161.3506 C.ar    1  UNL1        0.1193
     20 N         144.8446  140.8833  162.1058 N.ar    1  UNL1       -0.1679
     21 C         143.1260  142.0475  158.7916 C.ar    1  UNL1        0.0189
     22 C         142.6780  140.8313  158.0366 C.ar    1  UNL1        0.0965
     23 N         143.5675  140.2285  156.9898 N.ar    1  UNL1       -0.2425
     24 C         144.9047  140.8421  156.6980 C.ar    1  UNL1        0.0999
     25 C         145.3527  142.0584  157.4530 C.ar    1  UNL1        0.0329
     26 C         144.4633  142.6611  158.4998 C.ar    1  UNL1        0.0019
     27 C         146.6900  142.6719  157.1612 C.2     1  UNL1        0.0744
     28 O         147.2068  142.7096  155.7535 O.co2   1  UNL1       -0.5445
     29 O         147.5105  143.2478  158.2770 O.co2   1  UNL1       -0.5445
     30 C         140.0754  145.0432  157.5246 C.ar    1  UNL1        0.1318
     31 N         140.2017  146.5085  157.2302 N.ar    1  UNL1       -0.2298
     32 C         139.5424  146.7744  155.9094 C.ar    1  UNL1        0.0996
     33 C         139.0086  145.4734  155.3875 C.ar    1  UNL1        0.0927
     34 N         139.3381  144.4034  156.3858 N.ar    1  UNL1       -0.3386
     35 H         139.1103  143.4488  156.3073 H       1  UNL1        0.1672
     36 C         139.4355  148.1074  155.2298 C.ar    1  UNL1        0.0193
     37 C         139.9841  148.2897  153.8456 C.ar    1  UNL1        0.0039
     38 C         139.8773  149.6226  153.1660 C.ar    1  UNL1        0.0297
     39 C         139.2219  150.7732  153.8705 C.ar    1  UNL1        0.1401
     40 F         139.1151  152.1062  153.1909 F       1  UNL1       -0.2042
     41 C         138.6734  150.5910  155.2547 C.ar    1  UNL1        0.0297
     42 C         138.7802  149.2581  155.9343 C.ar    1  UNL1        0.0039
@<TRIPOS>UNITY_ATOM_ATTR
28 1
charge -1
@<TRIPOS>BOND
     1    15    16    1
     2    16    17   ar
     3    17    18   ar
     4     1    18    1
     5     1    21    1
     6    21    22   ar
     7    22    23   ar
     8    23    24   ar
     9    24    25   ar
    10    25    27    1
    11    27    28   ar
    12    27    29   ar
    13    25    26   ar
    14     1     2    1
    15     2     3    1
    16     3    30    1
    17    30    31   ar
    18    31    32   ar
    19    32    36    1
    20    36    37   ar
    21    37    38   ar
    22    38    39   ar
    23    39    40    1
    24    39    41   ar
    25    41    42   ar
    26    32    33   ar
    27    33    34   ar
    28     3     4    1
    29     4     5    1
    30     5     6    2
    31     6     7    1
    32     7     8    2
    33     8     9    1
    34     9    10    1
    35    10    11    2
    36    11    12    1
    37    12    13    2
    38    18    19   ar
    39    19    20   ar
    40    20    16   ar
    41     6     1    1
    42    13     8    1
    43    26    21   ar
    44    34    30   ar
    45    13     5    1
    46    42    36   ar
    47     2    14    1
    48    34    35    1
@<TRIPOS>MOLECULE
*****
 42 48 0 0 0
SMALL
GASTEIGER

@<TRIPOS>ATOM
      1 C         142.4859  140.0176  159.4528 C.3     1  UNL1        0.1205
      2 N         143.2272  140.4647  158.2279 N.3     1  UNL1       -0.2835
      3 C         144.1397  141.6533  158.2955 C.3     1  UNL1        0.1165
      4 C         144.3108  142.3950  159.5880 C.3     1  UNL1        0.0511
      5 C         143.5695  141.9479  160.8130 C.2     1  UNL1       -0.0038
      6 C         142.6570  140.7593  160.7454 C.2     1  UNL1        0.0753
      7 N         142.0620  140.5537  162.1069 N.2     1  UNL1       -0.2520
      8 C         142.6067  141.6154  163.0160 C.2     1  UNL1        0.0627
      9 C         142.3746  141.9088  164.4685 C.3     1  UNL1        0.0717
     10 C         143.0742  143.0638  165.1214 C.2     1  UNL1       -0.0198
     11 C         144.0059  143.9255  164.3217 C.2     1  UNL1       -0.0042
     12 C         144.2380  143.6321  162.8691 C.2     1  UNL1        0.0006
     13 C         143.5383  142.4770  162.2163 C.2     1  UNL1        0.0111
     14 H         142.5248  140.6726  157.5181 H       1  UNL1        0.1244
     15 C         138.1994  138.3294  162.0327 C.3     1  UNL1        0.1537
     16 N         139.6051  138.4403  161.5213 N.ar    1  UNL1       -0.2476
     17 C         140.1193  139.4848  160.5753 C.ar    1  UNL1        0.0943
     18 C         141.5753  139.2164  160.3355 C.ar    1  UNL1        0.0393
     19 C         141.9612  138.0061  161.1331 C.ar    1  UNL1        0.1193
     20 N         140.7435  137.5265  161.8660 N.ar    1  UNL1       -0.1679
     21 C         141.9986  138.9978  158.4668 C.ar    1  UNL1        0.0189
     22 C         140.6426  139.1459  157.8429 C.ar    1  UNL1        0.0965
     23 N         140.1552  138.1259  156.8569 N.ar    1  UNL1       -0.2425
     24 C         141.0239  136.9579  156.4947 C.ar    1  UNL1        0.0999
     25 C         142.3799  136.8098  157.1186 C.ar    1  UNL1        0.0329
     26 C         142.8672  137.8297  158.1047 C.ar    1  UNL1        0.0019
     27 C         143.2485  135.6417  156.7565 C.2     1  UNL1        0.0744
     28 O         143.2735  134.4253  157.6337 O.co2   1  UNL1       -0.5445
     29 O         144.0921  135.6902  155.5172 O.co2   1  UNL1       -0.5445
     30 C         144.8810  142.1004  157.0704 C.ar    1  UNL1        0.1318
     31 N         146.3492  141.9274  156.8163 N.ar    1  UNL1       -0.2298
     32 C         146.6599  142.5190  155.4733 C.ar    1  UNL1        0.0996
     33 C         145.3838  143.0576  154.8976 C.ar    1  UNL1        0.0927
     34 N         144.2844  142.7989  155.8846 N.ar    1  UNL1       -0.3386
     35 H         143.3375  143.0444  155.7737 H       1  UNL1        0.1672
     36 C         148.0098  142.5641  154.8208 C.ar    1  UNL1        0.0193
     37 C         148.2320  143.4302  153.6163 C.ar    1  UNL1        0.0039
     38 C         149.5819  143.4753  152.9638 C.ar    1  UNL1        0.0297
     39 C         150.7095  142.6544  153.5156 C.ar    1  UNL1        0.1401
     40 F         152.0594  142.6995  152.8630 F       1  UNL1       -0.2042
     41 C         150.4873  141.7884  154.7200 C.ar    1  UNL1        0.0297
     42 C         149.1374  141.7432  155.3726 C.ar    1  UNL1        0.0039
@<TRIPOS>UNITY_ATOM_ATTR
28 1
charge -1
@<TRIPOS>BOND
     1    15    16    1
     2    16    17   ar
     3    17    18   ar
     4     1    18    1
     5     1    21    1
     6    21    22   ar
     7    22    23   ar
     8    23    24   ar
     9    24    25   ar
    10    25    27    1
    11    27    28   ar
    12    27    29   ar
    13    25    26   ar
    14     1     2    1
    15     2     3    1
    16     3    30    1
    17    30    31   ar
    18    31    32   ar
    19    32    36    1
    20    36    37   ar
    21    37    38   ar
    22    38    39   ar
    23    39    40    1
    24    39    41   ar
    25    41    42   ar
    26    32    33   ar
    27    33    34   ar
    28     3     4    1
    29     4     5    1
    30     5     6    2
    31     6     7    1
    32     7     8    2
    33     8     9    1
    34     9    10    1
    35    10    11    2
    36    11    12    1
    37    12    13    2
    38    18    19   ar
    39    19    20   ar
    40    20    16   ar
    41     6     1    1
    42    13     8    1
    43    26    21   ar
    44    34    30   ar
    45    13     5    1
    46    42    36   ar
    47     2    14    1
    48    34    35    1
@<TRIPOS>MOLECULE
*****
 42 48 0 0 0
SMALL
GASTEIGER

@<TRIPOS>ATOM
      1 C         142.2803  142.6455  159.8120 C.3     1  UNL1        0.1205
      2 N         141.7766  143.3449  158.5844 N.3     1  UNL1       -0.2835
      3 C         140.6513  144.3309  158.6915 C.3     1  UNL1        0.1165
      4 C         140.0297  144.6175  160.0262 C.3     1  UNL1        0.0511
      5 C         140.5334  143.9181  161.2538 C.2     1  UNL1       -0.0038
      6 C         141.6587  142.9321  161.1468 C.2     1  UNL1        0.0753
      7 N         141.9417  142.4008  162.5207 N.2     1  UNL1       -0.2520
      8 C         140.9912  143.0584  163.4769 C.2     1  UNL1        0.0627
      9 C         140.8059  142.9244  164.9593 C.3     1  UNL1        0.0717
     10 C         139.7502  143.7282  165.6588 C.2     1  UNL1       -0.0198
     11 C         138.8798  144.6660  164.8758 C.2     1  UNL1       -0.0042
     12 C         139.0651  144.8000  163.3934 C.2     1  UNL1        0.0006
     13 C         140.1208  143.9962  162.6939 C.2     1  UNL1        0.0111
     14 H         141.4713  142.6189  157.9363 H       1  UNL1        0.1244
     15 C         143.8932  138.4350  162.5599 C.3     1  UNL1        0.1537
     16 N         143.8400  139.8017  161.9441 N.ar    1  UNL1       -0.2476
     17 C         142.7417  140.3336  161.0718 C.ar    1  UNL1        0.0943
     18 C         143.0986  141.7370  160.6811 C.ar    1  UNL1        0.0393
     19 C         144.4175  142.0727  161.3118 C.ar    1  UNL1        0.1193
     20 N         144.8757  140.8766  162.0924 N.ar    1  UNL1       -0.1679
     21 C         143.1861  142.0434  158.7792 C.ar    1  UNL1        0.0189
     22 C         144.4532  142.7464  158.3914 C.ar    1  UNL1        0.0965
     23 N         145.3591  142.1442  157.3585 N.ar    1  UNL1       -0.2425
     24 C         144.9978  140.8391  156.7133 C.ar    1  UNL1        0.0999
     25 C         143.7307  140.1362  157.1011 C.ar    1  UNL1        0.0329
     26 C         142.8249  140.7383  158.1339 C.ar    1  UNL1        0.0019
     27 C         143.3695  138.8311  156.4559 C.2     1  UNL1        0.0744
     28 O         141.9403  138.3765  156.4319 O.co2   1  UNL1       -0.5445
     29 O         144.4376  137.9807  155.8346 O.co2   1  UNL1       -0.5445
     30 C         140.1476  145.0303  157.4638 C.ar    1  UNL1        0.1318
     31 N         140.2385  146.5019  157.1876 N.ar    1  UNL1       -0.2298
     32 C         139.6116  146.7620  155.8500 C.ar    1  UNL1        0.0996
     33 C         139.1333  145.4513  155.2994 C.ar    1  UNL1        0.0927
     34 N         139.4645  144.3810  156.2968 N.ar    1  UNL1       -0.3386
     35 H         139.2681  143.4210  156.2022 H       1  UNL1        0.1672
     36 C         139.4853  148.0984  155.1804 C.ar    1  UNL1        0.0193
     37 C         138.7831  149.2243  155.8799 C.ar    1  UNL1        0.0039
     38 C         138.6568  150.5606  155.2104 C.ar    1  UNL1        0.0297
     39 C         139.2326  150.7710  153.8414 C.ar    1  UNL1        0.1401
     40 F         139.1063  152.1074  153.1718 F       1  UNL1       -0.2042
     41 C         139.9348  149.6451  153.1419 C.ar    1  UNL1        0.0297
     42 C         140.0611  148.3088  153.8114 C.ar    1  UNL1        0.0039
@<TRIPOS>UNITY_ATOM_ATTR
28 1
charge -1
@<TRIPOS>BOND
     1    15    16    1
     2    16    17   ar
     3    17    18   ar
     4     1    18    1
     5     1    21    1
     6    21    22   ar
     7    22    23   ar
     8    23    24   ar
     9    24    25   ar
    10    25    27    1
    11    27    28   ar
    12    27    29   ar
    13    25    26   ar
    14     1     2    1
    15     2     3    1
    16     3    30    1
    17    30    31   ar
    18    31    32   ar
    19    32    36    1
    20    36    37   ar
    21    37    38   ar
    22    38    39   ar
    23    39    40    1
    24    39    41   ar
    25    41    42   ar
    26    32    33   ar
    27    33    34   ar
    28     3     4    1
    29     4     5    1
    30     5     6    2
    31     6     7    1
    32     7     8    2
    33     8     9    1
    34     9    10    1
    35    10    11    2
    36    11    12    1
    37    12    13    2
    38    18    19   ar
    39    19    20   ar
    40    20    16   ar
    41     6     1    1
    42    13     8    1
    43    26    21   ar
    44    34    30   ar
    45    13     5    1
    46    42    36   ar
    47     2    14    1
    48    34    35    1
@<TRIPOS>MOLECULE
*****
 42 48 0 0 0
SMALL
GASTEIGER

@<TRIPOS>ATOM
      1 C         141.4681  141.2349  160.1143 C.3     1  UNL1        0.1205
      2 N         140.9096  142.0583  158.9917 N.3     1  UNL1       -0.2835
      3 C         141.0010  143.5547  159.0416 C.3     1  UNL1        0.1165
      4 C         141.6509  144.2277  160.2142 C.3     1  UNL1        0.0511
      5 C         142.2093  143.4044  161.3367 C.2     1  UNL1       -0.0038
      6 C         142.1179  141.9080  161.2868 C.2     1  UNL1        0.0753
      7 N         142.7531  141.3631  162.5316 N.2     1  UNL1       -0.2520
      8 C         143.2371  142.5227  163.3509 C.2     1  UNL1        0.0627
      9 C         143.9404  142.5928  164.6739 C.3     1  UNL1        0.0717
     10 C         144.3076  143.9245  165.2584 C.2     1  UNL1       -0.0198
     11 C         143.9715  145.1861  164.5199 C.2     1  UNL1       -0.0042
     12 C         143.2682  145.1160  163.1969 C.2     1  UNL1        0.0006
     13 C         142.9010  143.7843  162.6124 C.2     1  UNL1        0.0111
     14 H         139.9190  141.8260  158.9207 H       1  UNL1        0.1244
     15 C         141.2638  137.2245  163.5429 C.3     1  UNL1        0.1537
     16 N         141.7527  138.1895  162.5038 N.ar    1  UNL1       -0.2476
     17 C         140.9747  139.3367  161.9304 C.ar    1  UNL1        0.0943
     18 C         141.8465  140.0329  160.9279 C.ar    1  UNL1        0.0393
     19 C         143.1634  139.3161  160.8817 C.ar    1  UNL1        0.1193
     20 N         143.1053  138.1768  161.8557 N.ar    1  UNL1       -0.1679
     21 C         140.9497  140.1444  159.2244 C.ar    1  UNL1        0.0189
     22 C         139.4815  139.8389  159.1899 C.ar    1  UNL1        0.0965
     23 N         138.9631  138.7484  158.2999 N.ar    1  UNL1       -0.2425
     24 C         139.9129  137.9634  157.4445 C.ar    1  UNL1        0.0999
     25 C         141.3810  138.2689  157.4790 C.ar    1  UNL1        0.0329
     26 C         141.8994  139.3594  158.3689 C.ar    1  UNL1        0.0019
     27 C         142.3307  137.4838  156.6236 C.2     1  UNL1        0.0744
     28 O         141.8109  136.4007  155.7255 O.co2   1  UNL1       -0.5445
     29 O         143.8001  137.7819  156.6663 O.co2   1  UNL1       -0.5445
     30 C         140.4426  144.3781  157.9190 C.ar    1  UNL1        0.1318
     31 N         140.2733  145.8685  157.9184 N.ar    1  UNL1       -0.2298
     32 C         139.6815  146.2671  156.5990 C.ar    1  UNL1        0.0996
     33 C         139.4850  145.0231  155.7842 C.ar    1  UNL1        0.0927
     34 N         139.9553  143.8556  156.6001 N.ar    1  UNL1       -0.3386
     35 H         139.9459  142.9121  156.3192 H       1  UNL1        0.1672
     36 C         139.3452  147.6646  156.1697 C.ar    1  UNL1        0.0193
     37 C         139.7632  148.1540  154.8148 C.ar    1  UNL1        0.0039
     38 C         139.4270  149.5513  154.3855 C.ar    1  UNL1        0.0297
     39 C         138.6728  150.4593  155.3111 C.ar    1  UNL1        0.1401
     40 F         138.3365  151.8567  154.8818 F       1  UNL1       -0.2042
     41 C         138.2547  149.9698  156.6660 C.ar    1  UNL1        0.0297
     42 C         138.5910  148.5725  157.0953 C.ar    1  UNL1        0.0039
@<TRIPOS>UNITY_ATOM_ATTR
28 1
charge -1
@<TRIPOS>BOND
     1    15    16    1
     2    16    17   ar
     3    17    18   ar
     4     1    18    1
     5     1    21    1
     6    21    22   ar
     7    22    23   ar
     8    23    24   ar
     9    24    25   ar
    10    25    27    1
    11    27    28   ar
    12    27    29   ar
    13    25    26   ar
    14     1     2    1
    15     2     3    1
    16     3    30    1
    17    30    31   ar
    18    31    32   ar
    19    32    36    1
    20    36    37   ar
    21    37    38   ar
    22    38    39   ar
    23    39    40    1
    24    39    41   ar
    25    41    42   ar
    26    32    33   ar
    27    33    34   ar
    28     3     4    1
    29     4     5    1
    30     5     6    2
    31     6     7    1
    32     7     8    2
    33     8     9    1
    34     9    10    1
    35    10    11    2
    36    11    12    1
    37    12    13    2
    38    18    19   ar
    39    19    20   ar
    40    20    16   ar
    41     6     1    1
    42    13     8    1
    43    26    21   ar
    44    34    30   ar
    45    13     5    1
    46    42    36   ar
    47     2    14    1
    48    34    35    1
@<TRIPOS>MOLECULE
*****
 42 48 0 0 0
SMALL
GASTEIGER

@<TRIPOS>ATOM
      1 C         141.2462  141.3911  160.2814 C.3     1  UNL1        0.1205
      2 N         141.0415  142.1448  159.0008 N.3     1  UNL1       -0.2835
      3 C         140.3874  143.4945  159.0213 C.3     1  UNL1        0.1165
      4 C         139.9381  144.0906  160.3224 C.3     1  UNL1        0.0511
      5 C         140.1428  143.3369  161.6030 C.2     1  UNL1       -0.0038
      6 C         140.7969  141.9872  161.5825 C.2     1  UNL1        0.0753
      7 N         140.8647  141.4836  162.9938 N.2     1  UNL1       -0.2520
      8 C         140.2525  142.5220  163.8865 C.2     1  UNL1        0.0627
      9 C         140.0437  142.5726  165.3710 C.3     1  UNL1        0.0717
     10 C         139.3888  143.7686  165.9959 C.2     1  UNL1       -0.0198
     11 C         138.9426  144.9141  165.1363 C.2     1  UNL1       -0.0042
     12 C         139.1514  144.8635  163.6518 C.2     1  UNL1        0.0006
     13 C         139.8064  143.6675  163.0269 C.2     1  UNL1        0.0111
     14 H         140.4725  141.5510  158.3974 H       1  UNL1        0.1244
     15 C         141.1158  137.1059  163.3636 C.3     1  UNL1        0.1537
     16 N         141.5966  138.3290  162.6407 N.ar    1  UNL1       -0.2476
     17 C         140.7790  139.1895  161.7235 C.ar    1  UNL1        0.0943
     18 C         141.6565  140.2987  161.2240 C.ar    1  UNL1        0.0393
     19 C         143.0164  140.1238  161.8324 C.ar    1  UNL1        0.1193
     20 N         142.9793  138.9064  162.7080 N.ar    1  UNL1       -0.1679
     21 C         141.8380  140.4157  159.3077 C.ar    1  UNL1        0.0189
     22 C         143.3149  140.4207  159.0450 C.ar    1  UNL1        0.0965
     23 N         143.9067  139.4452  158.0712 N.ar    1  UNL1       -0.2425
     24 C         143.0217  138.4647  157.3602 C.ar    1  UNL1        0.0999
     25 C         141.5449  138.4598  157.6229 C.ar    1  UNL1        0.0329
     26 C         140.9531  139.4352  158.5967 C.ar    1  UNL1        0.0019
     27 C         140.6600  137.4793  156.9119 C.2     1  UNL1        0.0744
     28 O         141.2590  136.2819  156.2354 O.co2   1  UNL1       -0.5445
     29 O         139.1762  137.6962  156.8773 O.co2   1  UNL1       -0.5445
     30 C         140.1826  144.2483  157.7406 C.ar    1  UNL1        0.1318
     31 N         139.9895  145.7301  157.6110 N.ar    1  UNL1       -0.2298
     32 C         139.8225  146.0501  156.1551 C.ar    1  UNL1        0.0996
     33 C         139.9126  144.7661  155.3849 C.ar    1  UNL1        0.0927
     34 N         140.1351  143.6525  156.3648 N.ar    1  UNL1       -0.3386
     35 H         140.2328  142.6981  156.1438 H       1  UNL1        0.1672
     36 C         139.6040  147.4147  155.5717 C.ar    1  UNL1        0.0193
     37 C         138.7867  148.4272  156.3179 C.ar    1  UNL1        0.0039
     38 C         138.5681  149.7918  155.7346 C.ar    1  UNL1        0.0297
     39 C         139.1668  150.1438  154.4052 C.ar    1  UNL1        0.1401
     40 F         138.9482  151.5084  153.8218 F       1  UNL1       -0.2042
     41 C         139.9841  149.1313  153.6590 C.ar    1  UNL1        0.0297
     42 C         140.2027  147.7668  154.2422 C.ar    1  UNL1        0.0039
@<TRIPOS>UNITY_ATOM_ATTR
28 1
charge -1
@<TRIPOS>BOND
     1    15    16    1
     2    16    17   ar
     3    17    18   ar
     4     1    18    1
     5     1    21    1
     6    21    22   ar
     7    22    23   ar
     8    23    24   ar
     9    24    25   ar
    10    25    27    1
    11    27    28   ar
    12    27    29   ar
    13    25    26   ar
    14     1     2    1
    15     2     3    1
    16     3    30    1
    17    30    31   ar
    18    31    32   ar
    19    32    36    1
    20    36    37   ar
    21    37    38   ar
    22    38    39   ar
    23    39    40    1
    24    39    41   ar
    25    41    42   ar
    26    32    33   ar
    27    33    34   ar
    28     3     4    1
    29     4     5    1
    30     5     6    2
    31     6     7    1
    32     7     8    2
    33     8     9    1
    34     9    10    1
    35    10    11    2
    36    11    12    1
    37    12    13    2
    38    18    19   ar
    39    19    20   ar
    40    20    16   ar
    41     6     1    1
    42    13     8    1
    43    26    21   ar
    44    34    30   ar
    45    13     5    1
    46    42    36   ar
    47     2    14    1
    48    34    35    1
@<TRIPOS>MOLECULE
*****
 42 48 0 0 0
SMALL
GASTEIGER

@<TRIPOS>ATOM
      1 C         142.3430  141.1543  159.8389 C.3     1  UNL1        0.1205
      2 N         142.7451  139.8775  159.1622 N.3     1  UNL1       -0.2835
      3 C         142.6976  139.7743  157.6665 C.3     1  UNL1        0.1165
      4 C         142.2480  140.9478  156.8476 C.3     1  UNL1        0.0511
      5 C         141.8459  142.2246  157.5243 C.2     1  UNL1       -0.0038
      6 C         141.8934  142.3279  159.0200 C.2     1  UNL1        0.0753
      7 N         141.4403  143.7053  159.4041 N.2     1  UNL1       -0.2520
      8 C         141.1128  144.4533  158.1458 C.2     1  UNL1        0.0627
      9 C         140.6188  145.8494  157.9079 C.3     1  UNL1        0.0717
     10 C         140.3754  146.3305  156.5081 C.2     1  UNL1       -0.0198
     11 C         140.6261  145.4154  155.3464 C.2     1  UNL1       -0.0042
     12 C         141.1201  144.0192  155.5843 C.2     1  UNL1        0.0006
     13 C         141.3635  143.5382  156.9840 C.2     1  UNL1        0.0111
     14 H         142.1353  139.1460  159.5274 H       1  UNL1        0.1244
     15 C         142.9412  145.0081  163.3985 C.3     1  UNL1        0.1537
     16 N         142.3381  143.9142  162.5681 N.ar    1  UNL1       -0.2476
     17 C         143.0403  143.1288  161.5003 C.ar    1  UNL1        0.0943
     18 C         142.0632  142.1429  160.9319 C.ar    1  UNL1        0.0393
     19 C         140.7572  142.3189  161.6483 C.ar    1  UNL1        0.1193
     20 N         140.9271  143.4137  162.6595 N.ar    1  UNL1       -0.1679
     21 C         142.6955  140.3241  161.0374 C.ar    1  UNL1        0.0189
     22 C         144.0416  140.4718  161.6825 C.ar    1  UNL1        0.0965
     23 N         144.3941  139.6415  162.8811 N.ar    1  UNL1       -0.2425
     24 C         143.4004  138.6637  163.4345 C.ar    1  UNL1        0.0999
     25 C         142.0543  138.5160  162.7895 C.ar    1  UNL1        0.0329
     26 C         141.7018  139.3462  161.5910 C.ar    1  UNL1        0.0019
     27 C         141.0606  137.5381  163.3431 C.2     1  UNL1        0.0744
     28 O         141.3153  136.8776  164.6655 O.co2   1  UNL1       -0.5445
     29 O         139.8124  137.2209  162.5742 O.co2   1  UNL1       -0.5445
     30 C         143.0998  138.4974  156.9897 C.ar    1  UNL1        0.1318
     31 N         142.5598  137.1312  157.2924 N.ar    1  UNL1       -0.2298
     32 C         143.2388  136.1520  156.3812 C.ar    1  UNL1        0.0996
     33 C         144.1984  136.9132  155.5153 C.ar    1  UNL1        0.0927
     34 N         144.1125  138.3627  155.8914 N.ar    1  UNL1       -0.3386
     35 H         144.6299  139.0968  155.4882 H       1  UNL1        0.1672
     36 C         143.0000  134.6716  156.3427 C.ar    1  UNL1        0.0193
     37 C         141.8933  134.1121  155.4987 C.ar    1  UNL1        0.0039
     38 C         141.6546  132.6318  155.4601 C.ar    1  UNL1        0.0297
     39 C         142.5225  131.7109  156.2655 C.ar    1  UNL1        0.1401
     40 F         142.2837  130.2305  156.2270 F       1  UNL1       -0.2042
     41 C         143.6291  132.2704  157.1095 C.ar    1  UNL1        0.0297
     42 C         143.8679  133.7507  157.1480 C.ar    1  UNL1        0.0039
@<TRIPOS>UNITY_ATOM_ATTR
28 1
charge -1
@<TRIPOS>BOND
     1    15    16    1
     2    16    17   ar
     3    17    18   ar
     4     1    18    1
     5     1    21    1
     6    21    22   ar
     7    22    23   ar
     8    23    24   ar
     9    24    25   ar
    10    25    27    1
    11    27    28   ar
    12    27    29   ar
    13    25    26   ar
    14     1     2    1
    15     2     3    1
    16     3    30    1
    17    30    31   ar
    18    31    32   ar
    19    32    36    1
    20    36    37   ar
    21    37    38   ar
    22    38    39   ar
    23    39    40    1
    24    39    41   ar
    25    41    42   ar
    26    32    33   ar
    27    33    34   ar
    28     3     4    1
    29     4     5    1
    30     5     6    2
    31     6     7    1
    32     7     8    2
    33     8     9    1
    34     9    10    1
    35    10    11    2
    36    11    12    1
    37    12    13    2
    38    18    19   ar
    39    19    20   ar
    40    20    16   ar
    41     6     1    1
    42    13     8    1
    43    26    21   ar
    44    34    30   ar
    45    13     5    1
    46    42    36   ar
    47     2    14    1
    48    34    35    1
@<TRIPOS>MOLECULE
*****
 42 48 0 0 0
SMALL
GASTEIGER

@<TRIPOS>ATOM
      1 C         139.8126  140.6977  159.3290 C.3     1  UNL1        0.1205
      2 N         140.0598  139.3670  158.6822 N.3     1  UNL1       -0.2835
      3 C         140.5034  139.2996  157.2509 C.3     1  UNL1        0.1165
      4 C         140.6999  140.5629  156.4663 C.3     1  UNL1        0.0511
      5 C         140.4527  141.8936  157.1131 C.2     1  UNL1       -0.0038
      6 C         140.0091  141.9609  158.5444 C.2     1  UNL1        0.0753
      7 N         139.8442  143.4061  158.9109 N.2     1  UNL1       -0.2520
      8 C         140.1859  144.2318  157.7062 C.2     1  UNL1        0.0627
      9 C         140.2031  145.7142  157.4774 C.3     1  UNL1        0.0717
     10 C         140.5965  146.2617  156.1375 C.2     1  UNL1       -0.0198
     11 C         140.9726  145.3269  155.0264 C.2     1  UNL1       -0.0042
     12 C         140.9553  143.8446  155.2551 C.2     1  UNL1        0.0006
     13 C         140.5620  143.2970  156.5950 C.2     1  UNL1        0.0111
     14 H         139.1872  138.8425  158.7451 H       1  UNL1        0.1244
     15 C         140.1484  144.0720  163.3763 C.3     1  UNL1        0.1537
     16 N         139.6082  143.2630  162.2346 N.ar    1  UNL1       -0.2476
     17 C         140.3860  142.2923  161.3962 C.ar    1  UNL1        0.0943
     18 C         139.4539  141.7120  160.3742 C.ar    1  UNL1        0.0393
     19 C         138.1002  142.3241  160.5809 C.ar    1  UNL1        0.1193
     20 N         138.1956  143.2827  161.7307 N.ar    1  UNL1       -0.1679
     21 C         139.4916  139.7867  160.4765 C.ar    1  UNL1        0.0189
     22 C         138.0640  139.4482  160.7887 C.ar    1  UNL1        0.0965
     23 N         137.7430  138.5371  161.9364 N.ar    1  UNL1       -0.2425
     24 C         138.8495  137.9647  162.7718 C.ar    1  UNL1        0.0999
     25 C         140.2770  138.3033  162.4596 C.ar    1  UNL1        0.0329
     26 C         140.5981  139.2142  161.3120 C.ar    1  UNL1        0.0019
     27 C         141.3835  137.7308  163.2951 C.2     1  UNL1        0.0744
     28 O         142.8137  138.0072  162.9369 O.co2   1  UNL1       -0.5445
     29 O         141.0598  136.8820  164.4886 O.co2   1  UNL1       -0.5445
     30 C         140.7506  137.9689  156.6042 C.ar    1  UNL1        0.1318
     31 N         141.8305  136.9959  156.9742 N.ar    1  UNL1       -0.2298
     32 C         141.7086  135.8033  156.0726 C.ar    1  UNL1        0.0996
     33 C         140.5534  136.0393  155.1454 C.ar    1  UNL1        0.0927
     34 N         139.9613  137.3778  155.4739 N.ar    1  UNL1       -0.3386
     35 H         139.1901  137.7950  155.0263 H       1  UNL1        0.1672
     36 C         142.5877  134.5880  156.0944 C.ar    1  UNL1        0.0193
     37 C         143.4916  134.3371  157.2649 C.ar    1  UNL1        0.0039
     38 C         144.3706  133.1219  157.2867 C.ar    1  UNL1        0.0297
     39 C         144.3458  132.1576  156.1381 C.ar    1  UNL1        0.1401
     40 F         145.2248  130.9423  156.1599 F       1  UNL1       -0.2042
     41 C         143.4419  132.4085  154.9676 C.ar    1  UNL1        0.0297
     42 C         142.5628  133.6237  154.9457 C.ar    1  UNL1        0.0039
@<TRIPOS>UNITY_ATOM_ATTR
28 1
charge -1
@<TRIPOS>BOND
     1    15    16    1
     2    16    17   ar
     3    17    18   ar
     4     1    18    1
     5     1    21    1
     6    21    22   ar
     7    22    23   ar
     8    23    24   ar
     9    24    25   ar
    10    25    27    1
    11    27    28   ar
    12    27    29   ar
    13    25    26   ar
    14     1     2    1
    15     2     3    1
    16     3    30    1
    17    30    31   ar
    18    31    32   ar
    19    32    36    1
    20    36    37   ar
    21    37    38   ar
    22    38    39   ar
    23    39    40    1
    24    39    41   ar
    25    41    42   ar
    26    32    33   ar
    27    33    34   ar
    28     3     4    1
    29     4     5    1
    30     5     6    2
    31     6     7    1
    32     7     8    2
    33     8     9    1
    34     9    10    1
    35    10    11    2
    36    11    12    1
    37    12    13    2
    38    18    19   ar
    39    19    20   ar
    40    20    16   ar
    41     6     1    1
    42    13     8    1
    43    26    21   ar
    44    34    30   ar
    45    13     5    1
    46    42    36   ar
    47     2    14    1
    48    34    35    1
@<TRIPOS>MOLECULE
*****
 42 48 0 0 0
SMALL
GASTEIGER

@<TRIPOS>ATOM
      1 C         141.8360  143.4459  159.3033 C.3     1  UNL1        0.1205
      2 N         142.5891  143.1008  158.0528 N.3     1  UNL1       -0.2835
      3 C         143.9823  142.5525  158.1435 C.3     1  UNL1        0.1165
      4 C         144.6224  142.3491  159.4848 C.3     1  UNL1        0.0511
      5 C         143.8694  142.6942  160.7353 C.2     1  UNL1       -0.0038
      6 C         142.4762  143.2426  160.6445 C.2     1  UNL1        0.0753
      7 N         141.9836  143.4898  162.0396 N.2     1  UNL1       -0.2520
      8 C         143.0724  143.0943  162.9926 C.2     1  UNL1        0.0627
      9 C         143.1532  143.1183  164.4902 C.3     1  UNL1        0.0717
     10 C         144.3994  142.6507  165.1816 C.2     1  UNL1       -0.0198
     11 C         145.5648  142.1589  164.3755 C.2     1  UNL1       -0.0042
     12 C         145.4841  142.1349  162.8779 C.2     1  UNL1        0.0006
     13 C         144.2379  142.6025  162.1864 C.2     1  UNL1        0.0111
     14 H         142.6443  143.9545  157.4973 H       1  UNL1        0.1244
     15 C         137.6940  143.4806  162.5778 C.3     1  UNL1        0.1537
     16 N         138.8230  143.9346  161.7008 N.ar    1  UNL1       -0.2476
     17 C         139.7560  143.0452  160.9336 C.ar    1  UNL1        0.0943
     18 C         140.7268  143.9186  160.1957 C.ar    1  UNL1        0.0393
     19 C         140.3939  145.3477  160.5068 C.ar    1  UNL1        0.1193
     20 N         139.2172  145.3576  161.4370 N.ar    1  UNL1       -0.1679
     21 C         140.8107  143.8134  158.2720 C.ar    1  UNL1        0.0189
     22 C         139.8335  142.7843  157.7861 C.ar    1  UNL1        0.0965
     23 N         138.8081  143.1518  156.7547 N.ar    1  UNL1       -0.2425
     24 C         138.7600  144.5484  156.2094 C.ar    1  UNL1        0.0999
     25 C         139.7372  145.5774  156.6953 C.ar    1  UNL1        0.0329
     26 C         140.7625  145.2099  157.7266 C.ar    1  UNL1        0.0019
     27 C         139.6890  146.9739  156.1499 C.2     1  UNL1        0.0744
     28 O         138.8489  148.0153  156.8280 O.co2   1  UNL1       -0.5445
     29 O         140.4808  147.3290  154.9265 O.co2   1  UNL1       -0.5445
     30 C         144.7355  142.2074  156.8930 C.ar    1  UNL1        0.1318
     31 N         146.2192  142.3132  156.6999 N.ar    1  UNL1       -0.2298
     32 C         146.5379  141.8672  155.3036 C.ar    1  UNL1        0.0996
     33 C         145.2511  141.4857  154.6339 C.ar    1  UNL1        0.0927
     34 N         144.1371  141.6960  155.6162 N.ar    1  UNL1       -0.3386
     35 H         143.1811  141.5278  155.4517 H       1  UNL1        0.1672
     36 C         147.9036  141.8123  154.6857 C.ar    1  UNL1        0.0193
     37 C         149.1206  141.7491  155.5603 C.ar    1  UNL1        0.0039
     38 C         150.4862  141.6942  154.9424 C.ar    1  UNL1        0.0297
     39 C         150.6350  141.7024  153.4499 C.ar    1  UNL1        0.1401
     40 F         152.0007  141.6475  152.8319 F       1  UNL1       -0.2042
     41 C         149.4180  141.7656  152.5752 C.ar    1  UNL1        0.0297
     42 C         148.0523  141.8205  153.1931 C.ar    1  UNL1        0.0039
@<TRIPOS>UNITY_ATOM_ATTR
28 1
charge -1
@<TRIPOS>BOND
     1    15    16    1
     2    16    17   ar
     3    17    18   ar
     4     1    18    1
     5     1    21    1
     6    21    22   ar
     7    22    23   ar
     8    23    24   ar
     9    24    25   ar
    10    25    27    1
    11    27    28   ar
    12    27    29   ar
    13    25    26   ar
    14     1     2    1
    15     2     3    1
    16     3    30    1
    17    30    31   ar
    18    31    32   ar
    19    32    36    1
    20    36    37   ar
    21    37    38   ar
    22    38    39   ar
    23    39    40    1
    24    39    41   ar
    25    41    42   ar
    26    32    33   ar
    27    33    34   ar
    28     3     4    1
    29     4     5    1
    30     5     6    2
    31     6     7    1
    32     7     8    2
    33     8     9    1
    34     9    10    1
    35    10    11    2
    36    11    12    1
    37    12    13    2
    38    18    19   ar
    39    19    20   ar
    40    20    16   ar
    41     6     1    1
    42    13     8    1
    43    26    21   ar
    44    34    30   ar
    45    13     5    1
    46    42    36   ar
    47     2    14    1
    48    34    35    1
