@<TRIPOS>MOLECULE
*****
 43 47 0 0 0
SMALL
GASTEIGER

@<TRIPOS>ATOM
      1 C         140.2411  140.8391  162.6169 C.3     1  UNL1        0.0764
      2 C         139.8054  140.5045  164.0127 C.ar    1  UNL1        0.0181
      3 C         140.5049  141.1245  165.1858 C.ar    1  UNL1       -0.0009
      4 C         140.0692  140.7899  166.5816 C.ar    1  UNL1        0.0006
      5 C         140.7687  141.4100  167.7546 C.ar    1  UNL1        0.0103
      6 C         140.3330  141.0753  169.1504 C.ar    1  UNL1        0.0684
      7 C         139.1977  140.1206  169.3730 C.ar    1  UNL1        0.0103
      8 C         138.4981  139.5005  168.2000 C.ar    1  UNL1        0.0008
      9 C         138.9339  139.8352  166.8043 C.ar    1  UNL1        0.0030
     10 C         138.2343  139.2151  165.6311 C.ar    1  UNL1        0.0366
     11 C         138.6700  139.5497  164.2354 C.ar    1  UNL1        0.1351
     12 C         141.0325  141.6954  170.3235 C.1     1  UNL1        0.1004
     13 N         141.7320  142.3155  171.4966 N.1     1  UNL1       -0.1908
     14 O         137.9705  138.9297  163.0623 O.3     1  UNL1       -0.4717
     15 C         138.4842  137.6491  162.4738 C.3     1  UNL1        0.2525
     16 C         144.1523  140.5824  161.9954 C.ar    1  UNL1        0.2271
     17 C         142.8267  141.0666  162.5037 C.ar    1  UNL1        0.0540
     18 C         141.5667  140.3550  162.1087 C.ar    1  UNL1       -0.0064
     19 C         141.6323  139.1592  161.2054 C.ar    1  UNL1        0.0540
     20 C         142.9579  138.6750  160.6971 C.ar    1  UNL1        0.2272
     21 N         144.2179  139.3866  161.0921 N.ar    1  UNL1       -0.1767
     22 O         143.0235  137.4793  159.7939 O.3     1  UNL1       -0.4561
     23 C         142.6491  137.6107  158.3474 C.3     1  UNL1        0.2542
     24 O         145.4123  141.2940  162.3904 O.3     1  UNL1       -0.4602
     25 C         145.0549  142.6996  164.5461 C.3     1  UNL1        0.0512
     26 C         145.7072  141.5487  163.8389 C.3     1  UNL1        0.2072
     27 C         139.3512  141.6579  161.7294 C.3     1  UNL1        0.1186
     28 O         139.3656  140.5627  160.7045 O.3     1  UNL1       -0.3819
     29 H         139.3998  139.7023  161.1512 H       1  UNL1        0.2107
     30 C         139.3367  142.7531  162.7543 C.ar    1  UNL1        0.0369
     31 C         138.1496  142.9211  163.6557 C.ar    1  UNL1        0.0010
     32 C         138.1352  144.0162  164.6806 C.ar    1  UNL1       -0.0000
     33 C         139.3078  144.9434  164.8040 C.ar    1  UNL1        0.0031
     34 C         140.4948  144.7754  163.9026 C.ar    1  UNL1        0.0375
     35 C         141.7861  145.5307  163.7921 C.ar    1  UNL1        0.0437
     36 C         142.5986  144.9024  162.6990 C.ar    1  UNL1        0.1796
     37 O         141.8095  143.7586  162.1338 O.2     1  UNL1       -0.4507
     38 C         140.5093  143.6802  162.8778 C.ar    1  UNL1        0.1436
     39 C         138.4613  142.4767  160.8419 C.3     1  UNL1        0.0492
     40 C         138.8629  142.7486  159.4224 C.3     1  UNL1        0.0750
     41 N         140.1667  143.4298  159.1293 N.3     1  UNL1       -0.2702
     42 C         140.2709  144.9231  159.2252 C.3     1  UNL1        0.0897
     43 C         141.3665  142.6177  158.7404 C.3     1  UNL1        0.0897
@<TRIPOS>BOND
     1    25    26    1
     2    26    24    1
     3    24    16    1
     4    16    17   ar
     5    17    18   ar
     6     1    18    1
     7     1     2    1
     8     2     3   ar
     9     3     4   ar
    10     4     5   ar
    11     5     6   ar
    12     6    12    1
    13    12    13    3
    14     6     7   ar
    15     7     8   ar
    16     8     9   ar
    17     9    10   ar
    18    10    11   ar
    19    11    14    1
    20    14    15    1
    21     1    27    1
    22    27    28    1
    23    27    39    1
    24    39    40    1
    25    40    41    1
    26    41    42    1
    27    41    43    1
    28    27    30    1
    29    30    31   ar
    30    31    32   ar
    31    32    33   ar
    32    33    34   ar
    33    34    35   ar
    34    35    36   ar
    35    36    37   ar
    36    37    38   ar
    37    18    19   ar
    38    19    20   ar
    39    20    22    1
    40    22    23    1
    41    20    21   ar
    42    21    16   ar
    43    11     2   ar
    44    38    30   ar
    45     9     4   ar
    46    38    34   ar
    47    28    29    1
@<TRIPOS>MOLECULE
*****
 43 47 0 0 0
SMALL
GASTEIGER

@<TRIPOS>ATOM
      1 C         140.9354  141.6827  165.7261 C.3     1  UNL1        0.0764
      2 C         140.8259  142.6008  164.5449 C.ar    1  UNL1        0.0181
      3 C         141.5361  142.2664  163.2667 C.ar    1  UNL1       -0.0009
      4 C         141.4266  143.1844  162.0855 C.ar    1  UNL1        0.0006
      5 C         142.1368  142.8500  160.8073 C.ar    1  UNL1        0.0103
      6 C         142.0273  143.7681  159.6262 C.ar    1  UNL1        0.0684
      7 C         141.2076  145.0205  159.7232 C.ar    1  UNL1        0.0103
      8 C         140.4974  145.3549  161.0014 C.ar    1  UNL1        0.0008
      9 C         140.6069  144.4369  162.1825 C.ar    1  UNL1        0.0030
     10 C         139.8966  144.7713  163.4608 C.ar    1  UNL1        0.0366
     11 C         140.0062  143.8532  164.6419 C.ar    1  UNL1        0.1351
     12 C         142.7375  143.4337  158.3479 C.1     1  UNL1        0.1004
     13 N         143.4478  143.0993  157.0698 N.1     1  UNL1       -0.1908
     14 O         139.2959  144.1876  165.9201 O.3     1  UNL1       -0.4717
     15 C         138.1721  145.1811  165.9159 C.3     1  UNL1        0.2525
     16 C         138.8569  138.4224  164.8315 C.ar    1  UNL1        0.2271
     17 C         139.7908  139.5887  164.6989 C.ar    1  UNL1        0.0540
     18 C         140.0015  140.5164  165.8587 C.ar    1  UNL1       -0.0064
     19 C         139.2782  140.2779  167.1509 C.ar    1  UNL1        0.0540
     20 C         138.3442  139.1116  167.2835 C.ar    1  UNL1        0.2272
     21 N         138.1336  138.1839  166.1238 N.ar    1  UNL1       -0.1767
     22 O         137.6210  138.8731  168.5758 O.3     1  UNL1       -0.4561
     23 C         138.0166  139.6318  169.8077 C.3     1  UNL1        0.2542
     24 O         138.6463  137.4947  163.6718 O.3     1  UNL1       -0.4602
     25 C         137.7328  138.9088  161.6929 C.3     1  UNL1        0.0512
     26 C         138.7833  138.0056  162.2681 C.3     1  UNL1        0.2072
     27 C         141.9788  141.9309  166.7747 C.3     1  UNL1        0.1186
     28 O         141.0361  142.8485  167.4955 O.3     1  UNL1       -0.3819
     29 H         140.1283  142.5213  167.3976 H       1  UNL1        0.2107
     30 C         142.9215  141.0134  166.0540 C.ar    1  UNL1        0.0369
     31 C         142.8723  139.5361  166.3094 C.ar    1  UNL1        0.0010
     32 C         143.8150  138.6186  165.5886 C.ar    1  UNL1       -0.0000
     33 C         144.8068  139.1783  164.6125 C.ar    1  UNL1        0.0031
     34 C         144.8560  140.6555  164.3570 C.ar    1  UNL1        0.0375
     35 C         145.7189  141.4905  163.4580 C.ar    1  UNL1        0.0437
     36 C         145.3095  142.9241  163.6232 C.ar    1  UNL1        0.1796
     37 O         144.1936  142.9752  164.6243 O.2     1  UNL1       -0.4507
     38 C         143.9133  141.5731  165.0778 C.ar    1  UNL1        0.1436
     39 C         143.0222  142.1792  167.8234 C.3     1  UNL1        0.0492
     40 C         142.6106  142.5108  169.2272 C.3     1  UNL1        0.0750
     41 N         142.0785  141.4348  170.1267 N.3     1  UNL1       -0.2702
     42 C         142.6516  140.0503  170.0604 C.3     1  UNL1        0.0897
     43 C         140.9731  141.7435  171.0926 C.3     1  UNL1        0.0897
@<TRIPOS>BOND
     1    25    26    1
     2    26    24    1
     3    24    16    1
     4    16    17   ar
     5    17    18   ar
     6     1    18    1
     7     1     2    1
     8     2     3   ar
     9     3     4   ar
    10     4     5   ar
    11     5     6   ar
    12     6    12    1
    13    12    13    3
    14     6     7   ar
    15     7     8   ar
    16     8     9   ar
    17     9    10   ar
    18    10    11   ar
    19    11    14    1
    20    14    15    1
    21     1    27    1
    22    27    28    1
    23    27    39    1
    24    39    40    1
    25    40    41    1
    26    41    42    1
    27    41    43    1
    28    27    30    1
    29    30    31   ar
    30    31    32   ar
    31    32    33   ar
    32    33    34   ar
    33    34    35   ar
    34    35    36   ar
    35    36    37   ar
    36    37    38   ar
    37    18    19   ar
    38    19    20   ar
    39    20    22    1
    40    22    23    1
    41    20    21   ar
    42    21    16   ar
    43    11     2   ar
    44    38    30   ar
    45     9     4   ar
    46    38    34   ar
    47    28    29    1
@<TRIPOS>MOLECULE
*****
 43 47 0 0 0
SMALL
GASTEIGER

@<TRIPOS>ATOM
      1 C         140.8594  140.0691  162.4882 C.3     1  UNL1        0.0764
      2 C         140.1886  139.8041  163.8034 C.ar    1  UNL1        0.0181
      3 C         140.5792  140.5939  165.0173 C.ar    1  UNL1       -0.0009
      4 C         139.9084  140.3289  166.3325 C.ar    1  UNL1        0.0006
      5 C         140.2990  141.1188  167.5463 C.ar    1  UNL1        0.0103
      6 C         139.6282  140.8537  168.8615 C.ar    1  UNL1        0.0684
      7 C         138.5667  139.7988  168.9628 C.ar    1  UNL1        0.0103
      8 C         138.1760  139.0089  167.7490 C.ar    1  UNL1        0.0008
      9 C         138.8469  139.2739  166.4338 C.ar    1  UNL1        0.0030
     10 C         138.4562  138.4840  165.2199 C.ar    1  UNL1        0.0366
     11 C         139.1270  138.7491  163.9047 C.ar    1  UNL1        0.1351
     12 C         140.0189  141.6436  170.0754 C.1     1  UNL1        0.1004
     13 N         140.4094  142.4335  171.2892 N.1     1  UNL1       -0.1908
     14 O         138.7364  137.9592  162.6908 O.3     1  UNL1       -0.4717
     15 C         137.6673  138.4740  161.7732 C.3     1  UNL1        0.2525
     16 C         139.4003  143.6521  161.6038 C.ar    1  UNL1        0.2271
     17 C         139.6296  142.3510  162.3139 C.ar    1  UNL1        0.0540
     18 C         140.6301  141.3703  161.7780 C.ar    1  UNL1       -0.0064
     19 C         141.4013  141.6907  160.5320 C.ar    1  UNL1        0.0540
     20 C         141.1720  142.9919  159.8218 C.ar    1  UNL1        0.2272
     21 N         140.1715  143.9726  160.3577 N.ar    1  UNL1       -0.1767
     22 O         141.9432  143.3123  158.5758 O.3     1  UNL1       -0.4561
     23 C         142.1218  144.7396  158.1506 C.3     1  UNL1        0.2542
     24 O         138.3998  144.6329  162.1396 O.3     1  UNL1       -0.4602
     25 C         138.5696  144.6641  164.7320 C.3     1  UNL1        0.0512
     26 C         137.7759  144.4083  163.4851 C.3     1  UNL1        0.2072
     27 C         141.7596  139.0329  161.8832 C.3     1  UNL1        0.1186
     28 O         140.8205  138.8953  160.7217 O.3     1  UNL1       -0.3819
     29 H         140.4230  139.7576  160.5233 H       1  UNL1        0.2107
     30 C         142.6987  139.1706  163.0447 C.ar    1  UNL1        0.0369
     31 C         142.5731  138.2519  164.2237 C.ar    1  UNL1        0.0010
     32 C         143.5122  138.3895  165.3852 C.ar    1  UNL1       -0.0000
     33 C         144.5770  139.4459  165.3677 C.ar    1  UNL1        0.0031
     34 C         144.7026  140.3646  164.1887 C.ar    1  UNL1        0.0375
     35 C         145.6464  141.4917  163.8906 C.ar    1  UNL1        0.0437
     36 C         145.2906  142.0507  162.5448 C.ar    1  UNL1        0.1796
     37 O         144.1268  141.2690  162.0112 O.2     1  UNL1       -0.4507
     38 C         143.7635  140.2270  163.0272 C.ar    1  UNL1        0.1436
     39 C         142.6598  137.9968  161.2782 C.3     1  UNL1        0.0492
     40 C         143.6618  138.3913  160.2339 C.3     1  UNL1        0.0750
     41 N         143.2293  138.5684  158.8085 N.3     1  UNL1       -0.2702
     42 C         143.4009  139.8962  158.1322 C.3     1  UNL1        0.0897
     43 C         142.6252  137.4177  158.0595 C.3     1  UNL1        0.0897
@<TRIPOS>BOND
     1    25    26    1
     2    26    24    1
     3    24    16    1
     4    16    17   ar
     5    17    18   ar
     6     1    18    1
     7     1     2    1
     8     2     3   ar
     9     3     4   ar
    10     4     5   ar
    11     5     6   ar
    12     6    12    1
    13    12    13    3
    14     6     7   ar
    15     7     8   ar
    16     8     9   ar
    17     9    10   ar
    18    10    11   ar
    19    11    14    1
    20    14    15    1
    21     1    27    1
    22    27    28    1
    23    27    39    1
    24    39    40    1
    25    40    41    1
    26    41    42    1
    27    41    43    1
    28    27    30    1
    29    30    31   ar
    30    31    32   ar
    31    32    33   ar
    32    33    34   ar
    33    34    35   ar
    34    35    36   ar
    35    36    37   ar
    36    37    38   ar
    37    18    19   ar
    38    19    20   ar
    39    20    22    1
    40    22    23    1
    41    20    21   ar
    42    21    16   ar
    43    11     2   ar
    44    38    30   ar
    45     9     4   ar
    46    38    34   ar
    47    28    29    1
@<TRIPOS>MOLECULE
*****
 43 47 0 0 0
SMALL
GASTEIGER

@<TRIPOS>ATOM
      1 C         140.2549  140.8706  162.6046 C.3     1  UNL1        0.0764
      2 C         139.8234  140.5285  164.0000 C.ar    1  UNL1        0.0181
      3 C         140.5221  141.1474  165.1741 C.ar    1  UNL1       -0.0009
      4 C         140.0906  140.8054  166.5694 C.ar    1  UNL1        0.0006
      5 C         140.7894  141.4243  167.7435 C.ar    1  UNL1        0.0103
      6 C         140.3579  141.0822  169.1387 C.ar    1  UNL1        0.0684
      7 C         139.2276  140.1212  169.3599 C.ar    1  UNL1        0.0103
      8 C         138.5288  139.5023  168.1857 C.ar    1  UNL1        0.0008
      9 C         138.9603  139.8444  166.7905 C.ar    1  UNL1        0.0030
     10 C         138.2615  139.2254  165.6163 C.ar    1  UNL1        0.0366
     11 C         138.6931  139.5675  164.2211 C.ar    1  UNL1        0.1351
     12 C         141.0567  141.7011  170.3130 C.1     1  UNL1        0.1004
     13 N         141.7555  142.3200  171.4871 N.1     1  UNL1       -0.1908
     14 O         137.9943  138.9486  163.0469 O.3     1  UNL1       -0.4717
     15 C         138.5132  137.6730  162.4523 C.3     1  UNL1        0.2525
     16 C         142.9523  138.7349  160.6268 C.ar    1  UNL1        0.2271
     17 C         141.6306  139.2207  161.1435 C.ar    1  UNL1        0.0540
     18 C         141.5766  140.3848  162.0880 C.ar    1  UNL1       -0.0064
     19 C         142.8442  141.0629  162.5158 C.ar    1  UNL1        0.0540
     20 C         144.1660  140.5771  161.9992 C.ar    1  UNL1        0.2272
     21 N         144.2201  139.4130  161.0546 N.ar    1  UNL1       -0.1767
     22 O         145.4337  141.2552  162.4270 O.3     1  UNL1       -0.4561
     23 C         145.6127  141.6785  163.8548 C.3     1  UNL1        0.2542
     24 O         143.0064  137.5708  159.6823 O.3     1  UNL1       -0.4602
     25 C         142.7932  136.6334  157.2686 C.3     1  UNL1        0.0512
     26 C         142.5770  137.7423  158.2553 C.3     1  UNL1        0.2072
     27 C         139.3646  141.6986  161.7260 C.3     1  UNL1        0.1186
     28 O         139.3725  140.6109  160.6931 O.3     1  UNL1       -0.3819
     29 H         139.4054  139.7472  161.1333 H       1  UNL1        0.2107
     30 C         139.3567  142.7862  162.7590 C.ar    1  UNL1        0.0369
     31 C         138.1717  142.9531  163.6633 C.ar    1  UNL1        0.0010
     32 C         138.1639  144.0408  164.6962 C.ar    1  UNL1       -0.0000
     33 C         139.3410  144.9615  164.8248 C.ar    1  UNL1        0.0031
     34 C         140.5260  144.7946  163.9205 C.ar    1  UNL1        0.0375
     35 C         141.8206  145.5446  163.8137 C.ar    1  UNL1        0.0437
     36 C         142.6286  144.9205  162.7147 C.ar    1  UNL1        0.1796
     37 O         141.8334  143.7847  162.1423 O.2     1  UNL1       -0.4507
     38 C         140.5339  143.7070  162.8875 C.ar    1  UNL1        0.1436
     39 C         138.4743  142.5265  160.8474 C.3     1  UNL1        0.0492
     40 C         138.5836  142.4193  159.3552 C.3     1  UNL1        0.0750
     41 N         139.7234  143.0794  158.6374 N.3     1  UNL1       -0.2702
     42 C         140.3867  142.3852  157.4850 C.3     1  UNL1        0.0897
     43 C         140.1998  144.4338  159.0720 C.3     1  UNL1        0.0897
@<TRIPOS>BOND
     1    25    26    1
     2    26    24    1
     3    24    16    1
     4    16    17   ar
     5    17    18   ar
     6     1    18    1
     7     1     2    1
     8     2     3   ar
     9     3     4   ar
    10     4     5   ar
    11     5     6   ar
    12     6    12    1
    13    12    13    3
    14     6     7   ar
    15     7     8   ar
    16     8     9   ar
    17     9    10   ar
    18    10    11   ar
    19    11    14    1
    20    14    15    1
    21     1    27    1
    22    27    28    1
    23    27    39    1
    24    39    40    1
    25    40    41    1
    26    41    42    1
    27    41    43    1
    28    27    30    1
    29    30    31   ar
    30    31    32   ar
    31    32    33   ar
    32    33    34   ar
    33    34    35   ar
    34    35    36   ar
    35    36    37   ar
    36    37    38   ar
    37    18    19   ar
    38    19    20   ar
    39    20    22    1
    40    22    23    1
    41    20    21   ar
    42    21    16   ar
    43    11     2   ar
    44    38    30   ar
    45     9     4   ar
    46    38    34   ar
    47    28    29    1
@<TRIPOS>MOLECULE
*****
 43 47 0 0 0
SMALL
GASTEIGER

@<TRIPOS>ATOM
      1 C         141.9875  141.2269  162.7300 C.3     1  UNL1        0.0764
      2 C         142.0858  141.3663  164.2204 C.ar    1  UNL1        0.0181
      3 C         140.9549  140.9080  165.0927 C.ar    1  UNL1       -0.0009
      4 C         141.0532  141.0474  166.5831 C.ar    1  UNL1        0.0006
      5 C         139.9223  140.5892  167.4554 C.ar    1  UNL1        0.0103
      6 C         140.0207  140.7286  168.9457 C.ar    1  UNL1        0.0684
      7 C         141.2500  141.3262  169.5635 C.ar    1  UNL1        0.0103
      8 C         142.3809  141.7845  168.6912 C.ar    1  UNL1        0.0008
      9 C         142.2825  141.6451  167.2009 C.ar    1  UNL1        0.0030
     10 C         143.4134  142.1033  166.3285 C.ar    1  UNL1        0.0366
     11 C         143.3150  141.9639  164.8382 C.ar    1  UNL1        0.1351
     12 C         138.8898  140.2704  169.8181 C.1     1  UNL1        0.1004
     13 N         137.7590  139.8121  170.6905 N.1     1  UNL1       -0.1908
     14 O         144.4460  142.4221  163.9658 O.3     1  UNL1       -0.4717
     15 C         145.7314  141.6496  163.9368 C.3     1  UNL1        0.2525
     16 C         139.2636  143.9459  161.7622 C.ar    1  UNL1        0.2271
     17 C         140.0455  142.9443  162.5592 C.ar    1  UNL1        0.0540
     18 C         141.2055  142.2285  161.9331 C.ar    1  UNL1       -0.0064
     19 C         141.5836  142.5144  160.5099 C.ar    1  UNL1        0.0540
     20 C         140.8016  143.5160  159.7129 C.ar    1  UNL1        0.2272
     21 N         139.6416  144.2318  160.3390 N.ar    1  UNL1       -0.1767
     22 O         141.1797  143.8019  158.2898 O.3     1  UNL1       -0.4561
     23 C         142.6173  144.0285  157.9267 C.3     1  UNL1        0.2542
     24 O         138.1036  144.6617  162.3883 O.3     1  UNL1       -0.4602
     25 C         138.3189  144.6472  164.9775 C.3     1  UNL1        0.0512
     26 C         137.5936  144.2317  163.7319 C.3     1  UNL1        0.2072
     27 C         142.6711  140.0858  162.0368 C.3     1  UNL1        0.1186
     28 O         143.6624  141.0414  161.4415 O.3     1  UNL1       -0.3819
     29 H         143.8408  141.7566  162.0720 H       1  UNL1        0.2107
     30 C         141.6799  139.1303  162.6321 C.ar    1  UNL1        0.0369
     31 C         142.0678  138.2826  163.8072 C.ar    1  UNL1        0.0010
     32 C         141.0765  137.3270  164.4025 C.ar    1  UNL1       -0.0000
     33 C         139.6974  137.2192  163.8226 C.ar    1  UNL1        0.0031
     34 C         139.3095  138.0668  162.6475 C.ar    1  UNL1        0.0375
     35 C         138.0328  138.1778  161.8678 C.ar    1  UNL1        0.0437
     36 C         138.2351  139.2019  160.7906 C.ar    1  UNL1        0.1796
     37 O         139.6368  139.7239  160.9046 O.2     1  UNL1       -0.4507
     38 C         140.3007  139.0224  162.0522 C.ar    1  UNL1        0.1436
     39 C         143.3548  138.9447  161.3435 C.3     1  UNL1        0.0492
     40 C         144.1825  139.1989  160.1187 C.3     1  UNL1        0.0750
     41 N         143.5177  139.3527  158.7828 N.3     1  UNL1       -0.2702
     42 C         143.9763  140.4213  157.8354 C.3     1  UNL1        0.0897
     43 C         142.3943  138.4377  158.3945 C.3     1  UNL1        0.0897
@<TRIPOS>BOND
     1    25    26    1
     2    26    24    1
     3    24    16    1
     4    16    17   ar
     5    17    18   ar
     6     1    18    1
     7     1     2    1
     8     2     3   ar
     9     3     4   ar
    10     4     5   ar
    11     5     6   ar
    12     6    12    1
    13    12    13    3
    14     6     7   ar
    15     7     8   ar
    16     8     9   ar
    17     9    10   ar
    18    10    11   ar
    19    11    14    1
    20    14    15    1
    21     1    27    1
    22    27    28    1
    23    27    39    1
    24    39    40    1
    25    40    41    1
    26    41    42    1
    27    41    43    1
    28    27    30    1
    29    30    31   ar
    30    31    32   ar
    31    32    33   ar
    32    33    34   ar
    33    34    35   ar
    34    35    36   ar
    35    36    37   ar
    36    37    38   ar
    37    18    19   ar
    38    19    20   ar
    39    20    22    1
    40    22    23    1
    41    20    21   ar
    42    21    16   ar
    43    11     2   ar
    44    38    30   ar
    45     9     4   ar
    46    38    34   ar
    47    28    29    1
@<TRIPOS>MOLECULE
*****
 43 47 0 0 0
SMALL
GASTEIGER

@<TRIPOS>ATOM
      1 C         140.1823  140.1696  163.9272 C.3     1  UNL1        0.0764
      2 C         140.1102  140.2943  165.4204 C.ar    1  UNL1        0.0181
      3 C         141.0478  141.2162  166.1421 C.ar    1  UNL1       -0.0009
      4 C         140.9757  141.3408  167.6353 C.ar    1  UNL1        0.0006
      5 C         141.9133  142.2627  168.3570 C.ar    1  UNL1        0.0103
      6 C         141.8411  142.3873  169.8501 C.ar    1  UNL1        0.0684
      7 C         140.8315  141.5900  170.6213 C.ar    1  UNL1        0.0103
      8 C         139.8939  140.6681  169.8996 C.ar    1  UNL1        0.0008
      9 C         139.9660  140.5435  168.4065 C.ar    1  UNL1        0.0030
     10 C         139.0284  139.6216  167.6847 C.ar    1  UNL1        0.0366
     11 C         139.1005  139.4970  166.1916 C.ar    1  UNL1        0.1351
     12 C         142.7788  143.3093  170.5719 C.1     1  UNL1        0.1004
     13 N         143.7163  144.2311  171.2937 N.1     1  UNL1       -0.1908
     14 O         138.1629  138.5750  165.4698 O.3     1  UNL1       -0.4717
     15 C         138.3473  137.0897  165.5688 C.3     1  UNL1        0.2525
     16 C         142.7011  138.4528  161.3860 C.ar    1  UNL1        0.2271
     17 C         141.4222  138.8820  162.0419 C.ar    1  UNL1        0.0540
     18 C         141.4612  139.7405  163.2713 C.ar    1  UNL1       -0.0064
     19 C         142.7790  140.1699  163.8448 C.ar    1  UNL1        0.0540
     20 C         144.0579  139.7408  163.1889 C.ar    1  UNL1        0.2272
     21 N         144.0190  138.8823  161.9595 N.ar    1  UNL1       -0.1767
     22 O         145.3758  140.1702  163.7624 O.3     1  UNL1       -0.4561
     23 C         145.7707  141.6169  163.7330 C.3     1  UNL1        0.2542
     24 O         142.6622  137.5943  160.1566 O.3     1  UNL1       -0.4602
     25 C         142.5123  137.3883  157.5710 C.3     1  UNL1        0.0512
     26 C         142.7148  138.2274  158.7977 C.3     1  UNL1        0.2072
     27 C         138.9754  140.4741  163.0901 C.3     1  UNL1        0.1186
     28 O         138.8487  139.0201  162.7439 O.3     1  UNL1       -0.3819
     29 H         139.1241  138.4819  163.5025 H       1  UNL1        0.2107
     30 C         139.1021  141.9281  163.4363 C.ar    1  UNL1        0.0369
     31 C         138.2196  142.5277  164.4906 C.ar    1  UNL1        0.0010
     32 C         138.3463  143.9817  164.8368 C.ar    1  UNL1       -0.0000
     33 C         139.3555  144.8361  164.1287 C.ar    1  UNL1        0.0031
     34 C         140.2380  144.2365  163.0744 C.ar    1  UNL1        0.0375
     35 C         141.3159  144.8257  162.2136 C.ar    1  UNL1        0.0437
     36 C         141.8554  143.7359  161.3353 C.ar    1  UNL1        0.1796
     37 O         141.1109  142.4730  161.6534 O.2     1  UNL1       -0.4507
     38 C         140.1113  142.7825  162.7282 C.ar    1  UNL1        0.1436
     39 C         137.7686  140.7786  162.2530 C.3     1  UNL1        0.0492
     40 C         137.5675  140.0755  160.9432 C.3     1  UNL1        0.0750
     41 N         138.4531  140.3965  159.7760 N.3     1  UNL1       -0.2702
     42 C         138.5794  141.8125  159.2974 C.3     1  UNL1        0.0897
     43 C         139.2126  139.3015  159.0872 C.3     1  UNL1        0.0897
@<TRIPOS>BOND
     1    25    26    1
     2    26    24    1
     3    24    16    1
     4    16    17   ar
     5    17    18   ar
     6     1    18    1
     7     1     2    1
     8     2     3   ar
     9     3     4   ar
    10     4     5   ar
    11     5     6   ar
    12     6    12    1
    13    12    13    3
    14     6     7   ar
    15     7     8   ar
    16     8     9   ar
    17     9    10   ar
    18    10    11   ar
    19    11    14    1
    20    14    15    1
    21     1    27    1
    22    27    28    1
    23    27    39    1
    24    39    40    1
    25    40    41    1
    26    41    42    1
    27    41    43    1
    28    27    30    1
    29    30    31   ar
    30    31    32   ar
    31    32    33   ar
    32    33    34   ar
    33    34    35   ar
    34    35    36   ar
    35    36    37   ar
    36    37    38   ar
    37    18    19   ar
    38    19    20   ar
    39    20    22    1
    40    22    23    1
    41    20    21   ar
    42    21    16   ar
    43    11     2   ar
    44    38    30   ar
    45     9     4   ar
    46    38    34   ar
    47    28    29    1
@<TRIPOS>MOLECULE
*****
 43 47 0 0 0
SMALL
GASTEIGER

@<TRIPOS>ATOM
      1 C         141.9116  141.6138  162.4063 C.3     1  UNL1        0.0764
      2 C         142.1170  141.5660  163.8915 C.ar    1  UNL1        0.0181
      3 C         140.9866  141.1657  164.7925 C.ar    1  UNL1       -0.0009
      4 C         141.1919  141.1180  166.2776 C.ar    1  UNL1        0.0006
      5 C         140.0615  140.7177  167.1786 C.ar    1  UNL1        0.0103
      6 C         140.2669  140.6699  168.6637 C.ar    1  UNL1        0.0684
      7 C         141.6028  141.0225  169.2477 C.ar    1  UNL1        0.0103
      8 C         142.7332  141.4228  168.3468 C.ar    1  UNL1        0.0008
      9 C         142.5278  141.4706  166.8617 C.ar    1  UNL1        0.0030
     10 C         143.6583  141.8709  165.9606 C.ar    1  UNL1        0.0366
     11 C         143.4529  141.9186  164.4756 C.ar    1  UNL1        0.1351
     12 C         139.1364  140.2696  169.5647 C.1     1  UNL1        0.1004
     13 N         138.0060  139.8693  170.4657 N.1     1  UNL1       -0.1908
     14 O         144.5834  142.3189  163.5745 O.3     1  UNL1       -0.4717
     15 C         145.9019  141.6094  163.6650 C.3     1  UNL1        0.2525
     16 C         139.4520  144.6454  161.6925 C.ar    1  UNL1        0.2271
     17 C         140.0518  143.4261  162.3279 C.ar    1  UNL1        0.0540
     18 C         141.3119  142.8330  161.7709 C.ar    1  UNL1       -0.0064
     19 C         141.9724  143.4592  160.5786 C.ar    1  UNL1        0.0540
     20 C         141.3727  144.6785  159.9432 C.ar    1  UNL1        0.2272
     21 N         140.1125  145.2716  160.5001 N.ar    1  UNL1       -0.1767
     22 O         142.0332  145.3046  158.7508 O.3     1  UNL1       -0.4561
     23 C         141.1976  145.8469  157.6293 C.3     1  UNL1        0.2542
     24 O         138.1919  145.2385  162.2494 O.3     1  UNL1       -0.4602
     25 C         137.9431  144.4439  164.7105 C.3     1  UNL1        0.0512
     26 C         137.4204  144.5042  163.3058 C.3     1  UNL1        0.2072
     27 C         142.3060  140.4423  161.5566 C.3     1  UNL1        0.1186
     28 O         143.6440  141.0730  161.3080 O.3     1  UNL1       -0.3819
     29 H         143.9244  141.5591  162.0992 H       1  UNL1        0.2107
     30 C         140.9680  139.8115  161.8053 C.ar    1  UNL1        0.0369
     31 C         139.7741  140.2463  161.0080 C.ar    1  UNL1        0.0010
     32 C         138.4361  139.6155  161.2566 C.ar    1  UNL1       -0.0000
     33 C         138.2919  138.5500  162.3025 C.ar    1  UNL1        0.0031
     34 C         139.4857  138.1153  163.0998 C.ar    1  UNL1        0.0375
     35 C         139.6487  137.0966  164.1887 C.ar    1  UNL1        0.0437
     36 C         141.0874  137.0977  164.6131 C.ar    1  UNL1        0.1796
     37 O         141.8137  138.1172  163.7864 O.2     1  UNL1       -0.4507
     38 C         140.8238  138.7460  162.8511 C.ar    1  UNL1        0.1436
     39 C         142.7004  139.2707  160.7069 C.3     1  UNL1        0.0492
     40 C         143.9120  139.3566  159.8268 C.3     1  UNL1        0.0750
     41 N         143.7637  139.7246  158.3802 N.3     1  UNL1       -0.2702
     42 C         142.9244  138.8751  157.4726 C.3     1  UNL1        0.0897
     43 C         144.4547  140.9420  157.8413 C.3     1  UNL1        0.0897
@<TRIPOS>BOND
     1    25    26    1
     2    26    24    1
     3    24    16    1
     4    16    17   ar
     5    17    18   ar
     6     1    18    1
     7     1     2    1
     8     2     3   ar
     9     3     4   ar
    10     4     5   ar
    11     5     6   ar
    12     6    12    1
    13    12    13    3
    14     6     7   ar
    15     7     8   ar
    16     8     9   ar
    17     9    10   ar
    18    10    11   ar
    19    11    14    1
    20    14    15    1
    21     1    27    1
    22    27    28    1
    23    27    39    1
    24    39    40    1
    25    40    41    1
    26    41    42    1
    27    41    43    1
    28    27    30    1
    29    30    31   ar
    30    31    32   ar
    31    32    33   ar
    32    33    34   ar
    33    34    35   ar
    34    35    36   ar
    35    36    37   ar
    36    37    38   ar
    37    18    19   ar
    38    19    20   ar
    39    20    22    1
    40    22    23    1
    41    20    21   ar
    42    21    16   ar
    43    11     2   ar
    44    38    30   ar
    45     9     4   ar
    46    38    34   ar
    47    28    29    1
@<TRIPOS>MOLECULE
*****
 43 47 0 0 0
SMALL
GASTEIGER

@<TRIPOS>ATOM
      1 C         140.3533  140.8564  162.5260 C.3     1  UNL1        0.0764
      2 C         139.8689  140.4990  163.8999 C.ar    1  UNL1        0.0181
      3 C         140.5173  141.1103  165.1064 C.ar    1  UNL1       -0.0009
      4 C         140.0329  140.7529  166.4804 C.ar    1  UNL1        0.0006
      5 C         140.6814  141.3643  167.6869 C.ar    1  UNL1        0.0103
      6 C         140.1969  141.0068  169.0607 C.ar    1  UNL1        0.0684
      7 C         139.0641  140.0380  169.2281 C.ar    1  UNL1        0.0103
      8 C         138.4157  139.4266  168.0216 C.ar    1  UNL1        0.0008
      9 C         138.9001  139.7841  166.6477 C.ar    1  UNL1        0.0030
     10 C         138.2516  139.1727  165.4411 C.ar    1  UNL1        0.0366
     11 C         138.7360  139.5301  164.0673 C.ar    1  UNL1        0.1351
     12 C         140.8454  141.6182  170.2673 C.1     1  UNL1        0.1004
     13 N         141.4938  142.2295  171.4739 N.1     1  UNL1       -0.1908
     14 O         138.0876  138.9188  162.8607 O.3     1  UNL1       -0.4717
     15 C         138.5486  137.5831  162.3573 C.3     1  UNL1        0.2525
     16 C         144.2418  140.0944  162.3069 C.ar    1  UNL1        0.2271
     17 C         142.9262  140.6207  162.7988 C.ar    1  UNL1        0.0540
     18 C         141.6689  140.3301  162.0341 C.ar    1  UNL1       -0.0064
     19 C         141.7273  139.5132  160.7774 C.ar    1  UNL1        0.0540
     20 C         143.0430  138.9869  160.2854 C.ar    1  UNL1        0.2272
     21 N         144.3003  139.2775  161.0502 N.ar    1  UNL1       -0.1767
     22 O         143.1014  138.1700  159.0288 O.3     1  UNL1       -0.4561
     23 C         141.9069  138.0989  158.1244 C.3     1  UNL1        0.2542
     24 O         145.4991  140.3850  163.0717 O.3     1  UNL1       -0.4602
     25 C         145.0470  142.5243  164.4749 C.3     1  UNL1        0.0512
     26 C         145.8468  141.7985  163.4340 C.3     1  UNL1        0.2072
     27 C         139.5220  141.7402  161.6440 C.3     1  UNL1        0.1186
     28 O         139.0228  140.5337  160.9056 O.3     1  UNL1       -0.3819
     29 H         138.9385  139.7894  161.5218 H       1  UNL1        0.2107
     30 C         140.0211  142.9467  162.3825 C.ar    1  UNL1        0.0369
     31 C         141.3351  143.5652  162.0073 C.ar    1  UNL1        0.0010
     32 C         141.8342  144.7717  162.7457 C.ar    1  UNL1       -0.0000
     33 C         141.0193  145.3596  163.8594 C.ar    1  UNL1        0.0031
     34 C         139.7054  144.7411  164.2346 C.ar    1  UNL1        0.0375
     35 C         138.6906  145.0971  165.2803 C.ar    1  UNL1        0.0437
     36 C         137.5644  144.1107  165.1882 C.ar    1  UNL1        0.1796
     37 O         137.8830  143.1449  164.0855 O.2     1  UNL1       -0.4507
     38 C         139.2062  143.5346  163.4961 C.ar    1  UNL1        0.1436
     39 C         138.6906  142.6240  160.7620 C.3     1  UNL1        0.0492
     40 C         138.8512  142.5608  159.2719 C.3     1  UNL1        0.0750
     41 N         140.0864  143.1154  158.6265 N.3     1  UNL1       -0.2702
     42 C         141.2415  142.2101  158.3163 C.3     1  UNL1        0.0897
     43 C         140.1666  144.5753  158.2913 C.3     1  UNL1        0.0897
@<TRIPOS>BOND
     1    25    26    1
     2    26    24    1
     3    24    16    1
     4    16    17   ar
     5    17    18   ar
     6     1    18    1
     7     1     2    1
     8     2     3   ar
     9     3     4   ar
    10     4     5   ar
    11     5     6   ar
    12     6    12    1
    13    12    13    3
    14     6     7   ar
    15     7     8   ar
    16     8     9   ar
    17     9    10   ar
    18    10    11   ar
    19    11    14    1
    20    14    15    1
    21     1    27    1
    22    27    28    1
    23    27    39    1
    24    39    40    1
    25    40    41    1
    26    41    42    1
    27    41    43    1
    28    27    30    1
    29    30    31   ar
    30    31    32   ar
    31    32    33   ar
    32    33    34   ar
    33    34    35   ar
    34    35    36   ar
    35    36    37   ar
    36    37    38   ar
    37    18    19   ar
    38    19    20   ar
    39    20    22    1
    40    22    23    1
    41    20    21   ar
    42    21    16   ar
    43    11     2   ar
    44    38    30   ar
    45     9     4   ar
    46    38    34   ar
    47    28    29    1
@<TRIPOS>MOLECULE
*****
 43 47 0 0 0
SMALL
GASTEIGER

@<TRIPOS>ATOM
      1 C         140.4501  141.5594  162.6275 C.3     1  UNL1        0.0764
      2 C         140.4433  141.9556  164.0742 C.ar    1  UNL1        0.0181
      3 C         141.2310  141.1610  165.0732 C.ar    1  UNL1       -0.0009
      4 C         141.2242  141.5572  166.5200 C.ar    1  UNL1        0.0006
      5 C         142.0119  140.7625  167.5189 C.ar    1  UNL1        0.0103
      6 C         142.0051  141.1588  168.9656 C.ar    1  UNL1        0.0684
      7 C         141.2106  142.3497  169.4133 C.ar    1  UNL1        0.0103
      8 C         140.4229  143.1444  168.4143 C.ar    1  UNL1        0.0008
      9 C         140.4297  142.7481  166.9677 C.ar    1  UNL1        0.0030
     10 C         139.6420  143.5428  165.9686 C.ar    1  UNL1        0.0366
     11 C         139.6488  143.1466  164.5219 C.ar    1  UNL1        0.1351
     12 C         142.7928  140.3641  169.9647 C.1     1  UNL1        0.1004
     13 N         143.5804  139.5695  170.9637 N.1     1  UNL1       -0.1908
     14 O         138.8611  143.9413  163.5229 O.3     1  UNL1       -0.4717
     15 C         139.4665  145.1575  162.8869 C.3     1  UNL1        0.2525
     16 C         144.1830  142.1331  161.4084 C.ar    1  UNL1        0.2271
     17 C         143.0158  141.7733  162.2791 C.ar    1  UNL1        0.0540
     18 C         141.6173  141.9193  161.7568 C.ar    1  UNL1       -0.0064
     19 C         141.3859  142.4251  160.3638 C.ar    1  UNL1        0.0540
     20 C         142.5531  142.7850  159.4930 C.ar    1  UNL1        0.2272
     21 N         143.9516  142.6390  160.0153 N.ar    1  UNL1       -0.1767
     22 O         142.3218  143.2908  158.0999 O.3     1  UNL1       -0.4561
     23 C         142.3439  142.3371  156.9424 C.3     1  UNL1        0.2542
     24 O         145.5815  141.9872  161.9307 O.3     1  UNL1       -0.4602
     25 C         145.2366  142.5494  164.4437 C.3     1  UNL1        0.0512
     26 C         145.8119  141.6650  163.3775 C.3     1  UNL1        0.2072
     27 C         139.2897  140.8033  162.0515 C.3     1  UNL1        0.1186
     28 O         138.7614  142.0720  161.4503 O.3     1  UNL1       -0.3819
     29 H         139.5035  142.6351  161.1800 H       1  UNL1        0.2107
     30 C         139.8179  139.5346  162.6527 C.ar    1  UNL1        0.0369
     31 C         140.9246  138.7857  161.9712 C.ar    1  UNL1        0.0010
     32 C         141.4528  137.5170  162.5724 C.ar    1  UNL1       -0.0000
     33 C         140.8744  136.9973  163.8551 C.ar    1  UNL1        0.0031
     34 C         139.7678  137.7462  164.5365 C.ar    1  UNL1        0.0375
     35 C         139.0058  137.4800  165.8008 C.ar    1  UNL1        0.0437
     36 C         138.0066  138.5841  165.9811 C.ar    1  UNL1        0.1796
     37 O         138.1510  139.5328  164.8281 O.2     1  UNL1       -0.4507
     38 C         139.2395  139.0149  163.9354 C.ar    1  UNL1        0.1436
     39 C         138.1293  140.0472  161.4755 C.3     1  UNL1        0.0492
     40 C         137.6852  140.3134  160.0677 C.3     1  UNL1        0.0750
     41 N         138.6705  140.2217  158.9404 N.3     1  UNL1       -0.2702
     42 C         139.4950  138.9812  158.7641 C.3     1  UNL1        0.0897
     43 C         138.8313  141.3707  157.9896 C.3     1  UNL1        0.0897
@<TRIPOS>BOND
     1    25    26    1
     2    26    24    1
     3    24    16    1
     4    16    17   ar
     5    17    18   ar
     6     1    18    1
     7     1     2    1
     8     2     3   ar
     9     3     4   ar
    10     4     5   ar
    11     5     6   ar
    12     6    12    1
    13    12    13    3
    14     6     7   ar
    15     7     8   ar
    16     8     9   ar
    17     9    10   ar
    18    10    11   ar
    19    11    14    1
    20    14    15    1
    21     1    27    1
    22    27    28    1
    23    27    39    1
    24    39    40    1
    25    40    41    1
    26    41    42    1
    27    41    43    1
    28    27    30    1
    29    30    31   ar
    30    31    32   ar
    31    32    33   ar
    32    33    34   ar
    33    34    35   ar
    34    35    36   ar
    35    36    37   ar
    36    37    38   ar
    37    18    19   ar
    38    19    20   ar
    39    20    22    1
    40    22    23    1
    41    20    21   ar
    42    21    16   ar
    43    11     2   ar
    44    38    30   ar
    45     9     4   ar
    46    38    34   ar
    47    28    29    1
