@<TRIPOS>MOLECULE
*****
 34 36 0 0 0
SMALL
GASTEIGER

@<TRIPOS>ATOM
      1 C         140.6411  139.0514  160.6968 C.3     1  UNL1        0.1017
      2 C         139.5494  138.6948  159.7319 C.3     1  UNL1        0.0394
      3 C         139.8896  138.3159  158.3210 C.3     1  UNL1        0.0740
      4 N         141.3216  138.2936  157.8749 N.3     1  UNL1       -0.2701
      5 C         142.4133  138.6501  158.8398 C.3     1  UNL1        0.1037
      6 C         142.0731  139.0290  160.2507 C.3     1  UNL1        0.1490
      7 C         140.3155  138.3897  163.1880 C.2     1  UNL1        0.2488
      8 O         140.6703  136.9703  162.8574 O.2     1  UNL1       -0.2700
      9 N         140.3009  139.4302  162.1077 N.am    1  UNL1       -0.2999
     10 H         140.0680  140.3619  162.3247 H       1  UNL1        0.1498
     11 C         140.8720  139.6969  165.3632 C.ar    1  UNL1        0.1443
     12 C         140.5317  140.0758  166.7741 C.ar    1  UNL1        0.0520
     13 C         139.2947  139.5265  167.4207 C.ar    1  UNL1        0.0553
     14 N         138.9545  139.9054  168.8316 N.pl3   1  UNL1       -0.3563
     15 C         138.3980  138.5982  166.6564 C.ar    1  UNL1        0.0709
     16 CL        137.1610  138.0489  167.3030 Cl      1  UNL1       -0.0810
     17 C         138.7382  138.2193  165.2455 C.ar    1  UNL1        0.0202
     18 C         139.9752  138.7687  164.5989 C.ar    1  UNL1        0.0882
     19 H         139.5430  140.5147  169.3333 H       1  UNL1        0.1424
     20 H         138.1426  139.5449  169.2560 H       1  UNL1        0.1424
     21 C         142.1330  141.6639  164.2272 C.3     1  UNL1        0.2525
     22 O         142.1090  140.2463  164.7166 O.3     1  UNL1       -0.4712
     23 O         143.1648  139.3856  161.2156 O.3     1  UNL1       -0.3505
     24 C         143.8318  138.3122  162.0236 C.3     1  UNL1        0.1741
     25 C         141.6618  137.9147  156.4641 C.3     1  UNL1        0.0818
     26 C         142.5743  136.7542  156.1984 C.3     1  UNL1        0.1026
     27 C         142.0019  135.4248  155.8044 C.2     1  UNL1        0.2272
     28 O         140.8054  135.3612  154.9020 O.2     1  UNL1       -0.2748
     29 N         142.6259  134.1591  156.3130 N.am    1  UNL1       -0.2743
     30 C         143.8224  134.2228  157.2155 C.3     1  UNL1        0.1255
     31 C         144.4465  132.9572  157.7240 C.3     1  UNL1        0.1636
     32 O         143.8740  131.6278  157.3300 O.3     1  UNL1       -0.3501
     33 C         142.6776  131.5641  156.4276 C.3     1  UNL1        0.1636
     34 C         142.0535  132.8298  155.9191 C.3     1  UNL1        0.1255
@<TRIPOS>BOND
     1    21    22    1
     2    22    11    1
     3    11    12   ar
     4    12    13   ar
     5    13    14    1
     6    13    15   ar
     7    15    16    1
     8    15    17   ar
     9    17    18   ar
    10    18     7    1
    11     7     8    2
    12     7     9   am
    13     1     9    1
    14     1     2    1
    15     2     3    1
    16     3     4    1
    17     4    25    1
    18    25    26    1
    19    26    27    1
    20    27    28    2
    21    27    29   am
    22    29    30    1
    23    30    31    1
    24    31    32    1
    25    32    33    1
    26    33    34    1
    27     4     5    1
    28     5     6    1
    29     6    23    1
    30    23    24    1
    31    18    11   ar
    32     6     1    1
    33    34    29    1
    34    14    19    1
    35    14    20    1
    36     9    10    1
@<TRIPOS>MOLECULE
*****
 34 36 0 0 0
SMALL
GASTEIGER

@<TRIPOS>ATOM
      1 C         141.9930  138.3188  163.6624 C.3     1  UNL1        0.1017
      2 C         143.3930  138.5335  163.1686 C.3     1  UNL1        0.0394
      3 C         143.6940  138.4379  161.7021 C.3     1  UNL1        0.0740
      4 N         142.5950  138.1275  160.7296 N.3     1  UNL1       -0.2701
      5 C         141.1950  137.9128  161.2235 C.3     1  UNL1        0.1037
      6 C         140.8940  138.0084  162.6898 C.3     1  UNL1        0.1490
      7 C         141.5691  139.7586  165.7831 C.2     1  UNL1        0.2488
      8 O         141.7473  141.0071  164.9711 O.2     1  UNL1       -0.2700
      9 N         141.6920  138.4144  165.1288 N.am    1  UNL1       -0.2999
     10 H         141.5751  137.5950  165.6617 H       1  UNL1        0.1498
     11 C         139.8509  140.0090  167.7157 C.ar    1  UNL1        0.1443
     12 C         139.5499  140.1046  169.1821 C.ar    1  UNL1        0.0520
     13 C         140.6662  140.0453  170.1822 C.ar    1  UNL1        0.0553
     14 N         140.3652  140.1409  171.6487 N.pl3   1  UNL1       -0.3563
     15 C         142.0835  139.8905  169.7161 C.ar    1  UNL1        0.0709
     16 CL        143.1998  139.8312  170.7162 Cl      1  UNL1       -0.0810
     17 C         142.3844  139.7949  168.2497 C.ar    1  UNL1        0.0202
     18 C         141.2681  139.8542  167.2495 C.ar    1  UNL1        0.0882
     19 H         139.4350  140.2425  171.9546 H       1  UNL1        0.1424
     20 H         141.0979  140.1020  172.3051 H       1  UNL1        0.1424
     21 C         137.9916  138.8187  166.3460 C.3     1  UNL1        0.2525
     22 O         138.7346  140.0682  166.7155 O.3     1  UNL1       -0.4712
     23 O         139.4940  137.7937  163.1837 O.3     1  UNL1       -0.3505
     24 C         138.3350  138.3730  162.4280 C.3     1  UNL1        0.1741
     25 C         142.8960  138.0319  159.2633 C.3     1  UNL1        0.0818
     26 C         143.0585  139.2805  158.4480 C.3     1  UNL1        0.1026
     27 C         142.1180  140.4324  158.6447 C.2     1  UNL1        0.2272
     28 O         140.7600  140.4089  158.0082 O.2     1  UNL1       -0.2748
     29 N         142.5356  141.6078  159.4778 N.am    1  UNL1       -0.2743
     30 C         143.8937  141.6312  160.1143 C.3     1  UNL1        0.1255
     31 C         144.3113  142.8066  160.9474 C.3     1  UNL1        0.1636
     32 O         143.3707  143.9585  161.1441 O.3     1  UNL1       -0.3501
     33 C         142.0127  143.9350  160.5076 C.3     1  UNL1        0.1636
     34 C         141.5951  142.7596  159.6745 C.3     1  UNL1        0.1255
@<TRIPOS>BOND
     1    21    22    1
     2    22    11    1
     3    11    12   ar
     4    12    13   ar
     5    13    14    1
     6    13    15   ar
     7    15    16    1
     8    15    17   ar
     9    17    18   ar
    10    18     7    1
    11     7     8    2
    12     7     9   am
    13     1     9    1
    14     1     2    1
    15     2     3    1
    16     3     4    1
    17     4    25    1
    18    25    26    1
    19    26    27    1
    20    27    28    2
    21    27    29   am
    22    29    30    1
    23    30    31    1
    24    31    32    1
    25    32    33    1
    26    33    34    1
    27     4     5    1
    28     5     6    1
    29     6    23    1
    30    23    24    1
    31    18    11   ar
    32     6     1    1
    33    34    29    1
    34    14    19    1
    35    14    20    1
    36     9    10    1
@<TRIPOS>MOLECULE
*****
 34 36 0 0 0
SMALL
GASTEIGER

@<TRIPOS>ATOM
      1 C         141.1587  138.5799  163.2675 C.3     1  UNL1        0.1017
      2 C         142.5306  138.3535  162.7047 C.3     1  UNL1        0.0394
      3 C         142.7256  138.2550  161.2207 C.3     1  UNL1        0.0740
      4 N         141.5488  138.3829  160.2995 N.3     1  UNL1       -0.2701
      5 C         140.1769  138.6094  160.8622 C.3     1  UNL1        0.1037
      6 C         139.9819  138.7079  162.3462 C.3     1  UNL1        0.1490
      7 C         141.2729  139.9610  165.4651 C.2     1  UNL1        0.2488
      8 O         141.7772  141.1452  164.6947 O.2     1  UNL1       -0.2700
      9 N         140.9637  138.6784  164.7514 N.am    1  UNL1       -0.2999
     10 H         140.6327  137.9012  165.2571 H       1  UNL1        0.1498
     11 C         139.7112  139.8767  167.5397 C.ar    1  UNL1        0.1443
     12 C         139.5161  139.9752  169.0236 C.ar    1  UNL1        0.0520
     13 C         140.6878  140.2564  169.9171 C.ar    1  UNL1        0.0553
     14 N         140.4927  140.3549  171.4011 N.pl3   1  UNL1       -0.3563
     15 C         142.0544  140.4392  169.3265 C.ar    1  UNL1        0.0709
     16 CL        143.2260  140.7204  170.2199 Cl      1  UNL1       -0.0810
     17 C         142.2494  140.3407  167.8425 C.ar    1  UNL1        0.0202
     18 C         141.0778  140.0595  166.9491 C.ar    1  UNL1        0.0882
     19 H         139.5957  140.2349  171.7887 H       1  UNL1        0.1424
     20 H         141.2616  140.5394  171.9875 H       1  UNL1        0.1424
     21 C         137.6411  138.4290  166.9325 C.3     1  UNL1        0.2525
     22 O         138.5395  139.5955  166.6463 O.3     1  UNL1       -0.4712
     23 O         138.6100  138.9344  162.9089 O.3     1  UNL1       -0.3505
     24 C         138.0956  140.3314  163.0919 C.3     1  UNL1        0.1741
     25 C         141.7439  138.2844  158.8155 C.3     1  UNL1        0.0818
     26 C         142.6680  137.2484  158.2476 C.3     1  UNL1        0.1026
     27 C         142.4249  136.6990  156.8732 C.2     1  UNL1        0.2272
     28 O         141.7734  137.5549  155.8278 O.2     1  UNL1       -0.2748
     29 N         142.8332  135.2936  156.5442 N.am    1  UNL1       -0.2743
     30 C         143.4848  134.4377  157.5897 C.3     1  UNL1        0.1255
     31 C         143.8931  133.0323  157.2607 C.3     1  UNL1        0.1636
     32 O         143.6499  132.4829  155.8862 O.3     1  UNL1       -0.3501
     33 C         142.9984  133.3388  154.8408 C.3     1  UNL1        0.1636
     34 C         142.5901  134.7442  155.1698 C.3     1  UNL1        0.1255
@<TRIPOS>BOND
     1    21    22    1
     2    22    11    1
     3    11    12   ar
     4    12    13   ar
     5    13    14    1
     6    13    15   ar
     7    15    16    1
     8    15    17   ar
     9    17    18   ar
    10    18     7    1
    11     7     8    2
    12     7     9   am
    13     1     9    1
    14     1     2    1
    15     2     3    1
    16     3     4    1
    17     4    25    1
    18    25    26    1
    19    26    27    1
    20    27    28    2
    21    27    29   am
    22    29    30    1
    23    30    31    1
    24    31    32    1
    25    32    33    1
    26    33    34    1
    27     4     5    1
    28     5     6    1
    29     6    23    1
    30    23    24    1
    31    18    11   ar
    32     6     1    1
    33    34    29    1
    34    14    19    1
    35    14    20    1
    36     9    10    1
@<TRIPOS>MOLECULE
*****
 34 36 0 0 0
SMALL
GASTEIGER

@<TRIPOS>ATOM
      1 C         138.7334  141.2462  163.0412 C.3     1  UNL1        0.1017
      2 C         138.1942  142.4830  162.3857 C.3     1  UNL1        0.0394
      3 C         138.1495  142.5801  160.8895 C.3     1  UNL1        0.0740
      4 N         138.6439  141.4404  160.0489 N.3     1  UNL1       -0.2701
      5 C         139.1831  140.2037  160.7043 C.3     1  UNL1        0.1037
      6 C         139.2278  140.1065  162.2005 C.3     1  UNL1        0.1490
      7 C         139.9711  141.6636  165.2870 C.2     1  UNL1        0.2488
      8 O         141.1194  142.2754  164.5406 O.2     1  UNL1       -0.2700
      9 N         138.7782  141.1490  164.5374 N.am    1  UNL1       -0.2999
     10 H         138.0245  140.7475  165.0274 H       1  UNL1        0.1498
     11 C         139.6095  140.2934  167.4647 C.ar    1  UNL1        0.1443
     12 C         139.6543  140.1963  168.9608 C.ar    1  UNL1        0.0520
     13 C         140.1053  141.3722  169.7756 C.ar    1  UNL1        0.0553
     14 N         140.1500  141.2750  171.2718 N.pl3   1  UNL1       -0.3563
     15 C         140.5116  142.6452  169.0942 C.ar    1  UNL1        0.0709
     16 CL        140.9627  143.8211  169.9090 Cl      1  UNL1       -0.0810
     17 C         140.4669  142.7423  167.5981 C.ar    1  UNL1        0.0202
     18 C         140.0159  141.5665  166.7833 C.ar    1  UNL1        0.0882
     19 H         139.8833  140.4395  171.7190 H       1  UNL1        0.1424
     20 H         140.4461  142.0468  171.8066 H       1  UNL1        0.1424
     21 C         137.7747  138.5673  166.8294 C.3     1  UNL1        0.2525
     22 O         139.1585  139.1176  166.6499 O.3     1  UNL1       -0.4712
     23 O         139.7670  138.8697  162.8560 O.3     1  UNL1       -0.3505
     24 C         138.8728  137.6850  163.0724 C.3     1  UNL1        0.1741
     25 C         138.5992  141.5376  158.5527 C.3     1  UNL1        0.0818
     26 C         139.7707  142.0981  157.8021 C.3     1  UNL1        0.1026
     27 C         140.1411  143.5431  157.9605 C.2     1  UNL1        0.2272
     28 O         141.0877  143.9599  159.0467 O.2     1  UNL1       -0.2748
     29 N         139.5647  144.5711  157.0326 N.am    1  UNL1       -0.2743
     30 C         138.6180  144.1542  155.9463 C.3     1  UNL1        0.1255
     31 C         138.0416  145.1822  155.0184 C.3     1  UNL1        0.1636
     32 O         138.4120  146.6271  155.1768 O.3     1  UNL1       -0.3501
     33 C         139.3587  147.0440  156.2630 C.3     1  UNL1        0.1636
     34 C         139.9351  146.0160  157.1909 C.3     1  UNL1        0.1255
@<TRIPOS>BOND
     1    21    22    1
     2    22    11    1
     3    11    12   ar
     4    12    13   ar
     5    13    14    1
     6    13    15   ar
     7    15    16    1
     8    15    17   ar
     9    17    18   ar
    10    18     7    1
    11     7     8    2
    12     7     9   am
    13     1     9    1
    14     1     2    1
    15     2     3    1
    16     3     4    1
    17     4    25    1
    18    25    26    1
    19    26    27    1
    20    27    28    2
    21    27    29   am
    22    29    30    1
    23    30    31    1
    24    31    32    1
    25    32    33    1
    26    33    34    1
    27     4     5    1
    28     5     6    1
    29     6    23    1
    30    23    24    1
    31    18    11   ar
    32     6     1    1
    33    34    29    1
    34    14    19    1
    35    14    20    1
    36     9    10    1
@<TRIPOS>MOLECULE
*****
 34 36 0 0 0
SMALL
GASTEIGER

@<TRIPOS>ATOM
      1 C         143.2449  141.3961  163.1519 C.3     1  UNL1        0.1017
      2 C         142.5767  140.4260  162.2233 C.3     1  UNL1        0.0394
      3 C         142.4524  140.7490  160.7637 C.3     1  UNL1        0.0740
      4 N         142.9965  142.0421  160.2328 N.3     1  UNL1       -0.2701
      5 C         143.6647  143.0123  161.1614 C.3     1  UNL1        0.1037
      6 C         143.7889  142.6893  162.6209 C.3     1  UNL1        0.1490
      7 C         142.3832  141.6374  165.5910 C.2     1  UNL1        0.2488
      8 O         141.2730  142.5245  165.1111 O.2     1  UNL1       -0.2700
      9 N         143.3691  141.0732  164.6114 N.am    1  UNL1       -0.2999
     10 H         144.0978  140.4909  164.9264 H       1  UNL1        0.1498
     11 C         142.4659  139.8868  167.5090 C.ar    1  UNL1        0.1443
     12 C         142.5902  139.5638  168.9685 C.ar    1  UNL1        0.0520
     13 C         142.7560  140.6685  169.9696 C.ar    1  UNL1        0.0553
     14 N         142.8803  140.3455  171.4292 N.pl3   1  UNL1       -0.3563
     15 C         142.7976  142.0961  169.5112 C.ar    1  UNL1        0.0709
     16 CL        142.9634  143.2007  170.5123 Cl      1  UNL1       -0.0810
     17 C         142.6733  142.4190  168.0517 C.ar    1  UNL1        0.0202
     18 C         142.5075  141.3144  167.0506 C.ar    1  UNL1        0.0882
     19 H         142.8531  139.4085  171.7300 H       1  UNL1        0.1424
     20 H         142.9892  141.0705  172.0862 H       1  UNL1        0.1424
     21 C         143.5028  138.0437  165.9997 C.3     1  UNL1        0.2525
     22 O         142.3001  138.7821  166.5078 O.3     1  UNL1       -0.4712
     23 O         144.4572  143.6594  163.5495 O.3     1  UNL1       -0.3505
     24 C         143.7219  144.8818  164.0131 C.3     1  UNL1        0.1741
     25 C         142.8722  142.3651  158.7733 C.3     1  UNL1        0.0818
     26 C         141.7666  143.2585  158.2943 C.3     1  UNL1        0.1026
     27 C         141.4703  144.5388  159.0175 C.2     1  UNL1        0.2272
     28 O         142.1752  145.8030  158.6239 O.2     1  UNL1       -0.2748
     29 N         140.4692  144.5550  160.1344 N.am    1  UNL1       -0.2743
     30 C         139.7642  143.2907  160.5280 C.3     1  UNL1        0.1255
     31 C         138.7631  143.3068  161.6449 C.3     1  UNL1        0.1636
     32 O         138.4668  144.5872  162.3681 O.3     1  UNL1       -0.3501
     33 C         139.1717  145.8513  161.9745 C.3     1  UNL1        0.1636
     34 C         140.1729  145.8352  160.8576 C.3     1  UNL1        0.1255
@<TRIPOS>BOND
     1    21    22    1
     2    22    11    1
     3    11    12   ar
     4    12    13   ar
     5    13    14    1
     6    13    15   ar
     7    15    16    1
     8    15    17   ar
     9    17    18   ar
    10    18     7    1
    11     7     8    2
    12     7     9   am
    13     1     9    1
    14     1     2    1
    15     2     3    1
    16     3     4    1
    17     4    25    1
    18    25    26    1
    19    26    27    1
    20    27    28    2
    21    27    29   am
    22    29    30    1
    23    30    31    1
    24    31    32    1
    25    32    33    1
    26    33    34    1
    27     4     5    1
    28     5     6    1
    29     6    23    1
    30    23    24    1
    31    18    11   ar
    32     6     1    1
    33    34    29    1
    34    14    19    1
    35    14    20    1
    36     9    10    1
@<TRIPOS>MOLECULE
*****
 34 36 0 0 0
SMALL
GASTEIGER

@<TRIPOS>ATOM
      1 C         141.6714  140.0356  163.2329 C.3     1  UNL1        0.1017
      2 C         140.6317  139.4349  162.3339 C.3     1  UNL1        0.0394
      3 C         140.9556  139.1522  160.8968 C.3     1  UNL1        0.0740
      4 N         142.3192  139.4700  160.3587 N.3     1  UNL1       -0.2701
      5 C         143.3589  140.0707  161.2577 C.3     1  UNL1        0.1037
      6 C         143.0351  140.3534  162.6947 C.3     1  UNL1        0.1490
      7 C         141.7316  139.3326  165.7333 C.2     1  UNL1        0.2488
      8 O         142.4394  138.0640  165.3596 O.2     1  UNL1       -0.2700
      9 N         141.3476  140.3184  164.6699 N.am    1  UNL1       -0.2999
     10 H         140.8831  141.1510  164.9152 H       1  UNL1        0.1498
     11 C         139.9923  139.8975  167.5787 C.ar    1  UNL1        0.1443
     12 C         139.6685  140.1803  169.0157 C.ar    1  UNL1        0.0520
     13 C         140.7602  140.1810  170.0444 C.ar    1  UNL1        0.0553
     14 N         140.4363  140.4638  171.4816 N.pl3   1  UNL1       -0.3563
     15 C         142.1757  139.8989  169.6361 C.ar    1  UNL1        0.0709
     16 CL        143.2673  139.8996  170.6648 Cl      1  UNL1       -0.0810
     17 C         142.4994  139.6161  168.1991 C.ar    1  UNL1        0.0202
     18 C         141.4078  139.6154  167.1704 C.ar    1  UNL1        0.0882
     19 H         139.5073  140.6490  171.7496 H       1  UNL1        0.1424
     20 H         141.1528  140.4643  172.1567 H       1  UNL1        0.1424
     21 C         137.9179  138.7647  166.5000 C.3     1  UNL1        0.2525
     22 O         138.9006  139.8968  166.5500 O.3     1  UNL1       -0.4712
     23 O         144.0748  140.9541  163.5937 O.3     1  UNL1       -0.3505
     24 C         145.1473  140.0872  164.1838 C.3     1  UNL1        0.1741
     25 C         142.6430  139.1873  158.9217 C.3     1  UNL1        0.0818
     26 C         142.6780  137.7723  158.4251 C.3     1  UNL1        0.1026
     27 C         141.7465  137.3375  157.3327 C.2     1  UNL1        0.2272
     28 O         140.4746  138.0934  157.0865 O.2     1  UNL1       -0.2748
     29 N         142.0871  136.1467  156.4865 N.am    1  UNL1       -0.2743
     30 C         143.3591  135.3907  156.7327 C.3     1  UNL1        0.1255
     31 C         143.6996  134.1999  155.8865 C.3     1  UNL1        0.1636
     32 O         142.7681  133.7651  154.7940 O.3     1  UNL1       -0.3501
     33 C         141.4962  134.5211  154.5478 C.3     1  UNL1        0.1636
     34 C         141.1557  135.7119  155.3941 C.3     1  UNL1        0.1255
@<TRIPOS>BOND
     1    21    22    1
     2    22    11    1
     3    11    12   ar
     4    12    13   ar
     5    13    14    1
     6    13    15   ar
     7    15    16    1
     8    15    17   ar
     9    17    18   ar
    10    18     7    1
    11     7     8    2
    12     7     9   am
    13     1     9    1
    14     1     2    1
    15     2     3    1
    16     3     4    1
    17     4    25    1
    18    25    26    1
    19    26    27    1
    20    27    28    2
    21    27    29   am
    22    29    30    1
    23    30    31    1
    24    31    32    1
    25    32    33    1
    26    33    34    1
    27     4     5    1
    28     5     6    1
    29     6    23    1
    30    23    24    1
    31    18    11   ar
    32     6     1    1
    33    34    29    1
    34    14    19    1
    35    14    20    1
    36     9    10    1
@<TRIPOS>MOLECULE
*****
 34 36 0 0 0
SMALL
GASTEIGER

@<TRIPOS>ATOM
      1 C         143.2073  143.2360  162.7425 C.3     1  UNL1        0.1017
      2 C         142.1779  143.6429  161.7302 C.3     1  UNL1        0.0394
      3 C         142.4620  143.4835  160.2659 C.3     1  UNL1        0.0740
      4 N         143.7755  142.9174  159.8141 N.3     1  UNL1       -0.2701
      5 C         144.8049  142.5106  160.8264 C.3     1  UNL1        0.1037
      6 C         144.5209  142.6699  162.2906 C.3     1  UNL1        0.1490
      7 C         142.3643  142.2458  164.9917 C.2     1  UNL1        0.2488
      8 O         142.0894  140.9370  164.3125 O.2     1  UNL1       -0.2700
      9 N         142.9232  143.3953  164.2067 N.am    1  UNL1       -0.2999
     10 H         143.1036  144.2543  164.6525 H       1  UNL1        0.1498
     11 C         140.6843  142.6953  166.9219 C.ar    1  UNL1        0.1443
     12 C         140.4003  142.8547  168.3861 C.ar    1  UNL1        0.0520
     13 C         141.5122  142.7238  169.3843 C.ar    1  UNL1        0.0553
     14 N         141.2281  142.8832  170.8486 N.pl3   1  UNL1       -0.3563
     15 C         142.9081  142.4336  168.9184 C.ar    1  UNL1        0.0709
     16 CL        144.0200  142.3027  169.9167 Cl      1  UNL1       -0.0810
     17 C         143.1921  142.2743  167.4542 C.ar    1  UNL1        0.0202
     18 C         142.0802  142.4051  166.4559 C.ar    1  UNL1        0.0882
     19 H         140.3119  143.0736  171.1544 H       1  UNL1        0.1424
     20 H         141.9579  142.7973  171.5038 H       1  UNL1        0.1424
     21 C         139.1886  144.1790  165.4015 C.3     1  UNL1        0.2525
     22 O         139.5724  142.8262  165.9236 O.3     1  UNL1       -0.4712
     23 O         145.5503  142.2630  163.3029 O.3     1  UNL1       -0.3505
     24 C         145.5555  140.8653  163.8471 C.3     1  UNL1        0.1741
     25 C         144.0596  142.7581  158.3499 C.3     1  UNL1        0.0818
     26 C         143.5231  141.5708  157.6067 C.3     1  UNL1        0.1026
     27 C         143.0458  140.3660  158.3622 C.2     1  UNL1        0.2272
     28 O         144.0357  139.4610  159.0337 O.2     1  UNL1       -0.2748
     29 N         141.5784  140.0663  158.4462 N.am    1  UNL1       -0.2743
     30 C         140.5884  140.9713  157.7747 C.3     1  UNL1        0.1255
     31 C         139.1211  140.6716  157.8587 C.3     1  UNL1        0.1636
     32 O         138.6437  139.4669  158.6142 O.3     1  UNL1       -0.3501
     33 C         139.6337  138.5619  159.2857 C.3     1  UNL1        0.1636
     34 C         141.1010  138.8616  159.2017 C.3     1  UNL1        0.1255
@<TRIPOS>BOND
     1    21    22    1
     2    22    11    1
     3    11    12   ar
     4    12    13   ar
     5    13    14    1
     6    13    15   ar
     7    15    16    1
     8    15    17   ar
     9    17    18   ar
    10    18     7    1
    11     7     8    2
    12     7     9   am
    13     1     9    1
    14     1     2    1
    15     2     3    1
    16     3     4    1
    17     4    25    1
    18    25    26    1
    19    26    27    1
    20    27    28    2
    21    27    29   am
    22    29    30    1
    23    30    31    1
    24    31    32    1
    25    32    33    1
    26    33    34    1
    27     4     5    1
    28     5     6    1
    29     6    23    1
    30    23    24    1
    31    18    11   ar
    32     6     1    1
    33    34    29    1
    34    14    19    1
    35    14    20    1
    36     9    10    1
@<TRIPOS>MOLECULE
*****
 34 36 0 0 0
SMALL
GASTEIGER

@<TRIPOS>ATOM
      1 C         139.9574  143.4610  163.1483 C.3     1  UNL1        0.1017
      2 C         139.6635  144.9174  162.9422 C.3     1  UNL1        0.0394
      3 C         140.0116  145.5759  161.6401 C.3     1  UNL1        0.0740
      4 N         140.6536  144.7779  160.5442 N.3     1  UNL1       -0.2701
      5 C         140.9475  143.3215  160.7503 C.3     1  UNL1        0.1037
      6 C         140.5994  142.6631  162.0523 C.3     1  UNL1        0.1490
      7 C         140.6586  142.6322  165.5086 C.2     1  UNL1        0.2488
      8 O         142.0558  143.1202  165.2650 O.2     1  UNL1       -0.2700
      9 N         139.6094  142.8026  164.4503 N.am    1  UNL1       -0.2999
     10 H         138.6923  142.4823  164.6102 H       1  UNL1        0.1498
     11 C         139.7993  140.5636  166.8249 C.ar    1  UNL1        0.1443
     12 C         139.4512  139.9052  168.1269 C.ar    1  UNL1        0.0520
     13 C         139.6142  140.6568  169.4147 C.ar    1  UNL1        0.0553
     14 N         139.2661  139.9984  170.7167 N.pl3   1  UNL1       -0.3563
     15 C         140.1254  142.0669  169.4005 C.ar    1  UNL1        0.0709
     16 CL        140.2885  142.8186  170.6882 Cl      1  UNL1       -0.0810
     17 C         140.4735  142.7254  168.0984 C.ar    1  UNL1        0.0202
     18 C         140.3104  141.9737  166.8107 C.ar    1  UNL1        0.0882
     19 H         138.9306  139.0728  170.7261 H       1  UNL1        0.1424
     20 H         139.3732  140.4917  171.5620 H       1  UNL1        0.1424
     21 C         138.2688  139.4039  165.0748 C.3     1  UNL1        0.2525
     22 O         139.6362  139.8119  165.5371 O.3     1  UNL1       -0.4712
     23 O         140.8933  141.2066  162.2583 O.3     1  UNL1       -0.3505
     24 C         142.3134  140.7365  162.3694 C.3     1  UNL1        0.1741
     25 C         141.0016  145.4364  159.2422 C.3     1  UNL1        0.0818
     26 C         140.0118  145.4395  158.1151 C.3     1  UNL1        0.1026
     27 C         140.4736  145.7015  156.7121 C.2     1  UNL1        0.2272
     28 O         141.4057  144.7394  156.0373 O.2     1  UNL1       -0.2748
     29 N         140.0032  146.9257  155.9841 N.am    1  UNL1       -0.2743
     30 C         139.0710  147.8879  156.6590 C.3     1  UNL1        0.1255
     31 C         138.6006  149.1121  155.9309 C.3     1  UNL1        0.1636
     32 O         139.0624  149.3741  154.5279 O.3     1  UNL1       -0.3501
     33 C         139.9945  148.4120  153.8531 C.3     1  UNL1        0.1636
     34 C         140.4649  147.1878  154.5812 C.3     1  UNL1        0.1255
@<TRIPOS>BOND
     1    21    22    1
     2    22    11    1
     3    11    12   ar
     4    12    13   ar
     5    13    14    1
     6    13    15   ar
     7    15    16    1
     8    15    17   ar
     9    17    18   ar
    10    18     7    1
    11     7     8    2
    12     7     9   am
    13     1     9    1
    14     1     2    1
    15     2     3    1
    16     3     4    1
    17     4    25    1
    18    25    26    1
    19    26    27    1
    20    27    28    2
    21    27    29   am
    22    29    30    1
    23    30    31    1
    24    31    32    1
    25    32    33    1
    26    33    34    1
    27     4     5    1
    28     5     6    1
    29     6    23    1
    30    23    24    1
    31    18    11   ar
    32     6     1    1
    33    34    29    1
    34    14    19    1
    35    14    20    1
    36     9    10    1
@<TRIPOS>MOLECULE
*****
 34 36 0 0 0
SMALL
GASTEIGER

@<TRIPOS>ATOM
      1 C         141.6981  139.1021  163.2517 C.3     1  UNL1        0.1017
      2 C         142.6361  138.0388  162.7624 C.3     1  UNL1        0.0394
      3 C         143.0806  138.0323  161.3297 C.3     1  UNL1        0.0740
      4 N         142.5871  139.0890  160.3865 N.3     1  UNL1       -0.2701
      5 C         141.6490  140.1523  160.8759 C.3     1  UNL1        0.1037
      6 C         141.2045  140.1589  162.3084 C.3     1  UNL1        0.1490
      7 C         141.9810  139.9493  165.6915 C.2     1  UNL1        0.2488
      8 O         143.1529  140.7832  165.2660 O.2     1  UNL1       -0.2700
      9 N         141.2536  139.1087  164.6843 N.am    1  UNL1       -0.2999
     10 H         140.4844  138.5613  164.9636 H       1  UNL1        0.1498
     11 C         140.0790  140.0789  167.4566 C.ar    1  UNL1        0.1443
     12 C         139.6345  140.0855  168.8892 C.ar    1  UNL1        0.0520
     13 C         140.6475  139.9689  169.9893 C.ar    1  UNL1        0.0553
     14 N         140.2029  139.9754  171.4219 N.pl3   1  UNL1       -0.3563
     15 C         142.1050  139.8458  169.6568 C.ar    1  UNL1        0.0709
     16 CL        143.1179  139.7292  170.7569 Cl      1  UNL1       -0.0810
     17 C         142.5494  139.8392  168.2242 C.ar    1  UNL1        0.0202
     18 C         141.5365  139.9558  167.1241 C.ar    1  UNL1        0.0882
     19 H         139.2463  140.0562  171.6401 H       1  UNL1        0.1424
     20 H         140.8678  139.8989  172.1440 H       1  UNL1        0.1424
     21 C         138.0338  139.1231  166.1706 C.3     1  UNL1        0.2525
     22 O         139.0660  140.1955  166.3565 O.3     1  UNL1       -0.4712
     23 O         140.2665  141.2222  162.7978 O.3     1  UNL1       -0.3505
     24 C         140.7759  142.6080  163.0620 C.3     1  UNL1        0.1741
     25 C         143.0315  139.0824  158.9539 C.3     1  UNL1        0.0818
     26 C         143.0171  140.3540  158.1583 C.3     1  UNL1        0.1026
     27 C         144.1473  141.3319  158.2867 C.2     1  UNL1        0.2272
     28 O         144.2562  142.1961  159.5078 O.2     1  UNL1       -0.2748
     29 N         145.1685  141.4455  157.1939 N.am    1  UNL1       -0.2743
     30 C         145.0596  140.5812  155.9727 C.3     1  UNL1        0.1255
     31 C         146.0808  140.6949  154.8800 C.3     1  UNL1        0.1636
     32 O         147.2110  141.6728  155.0084 O.3     1  UNL1       -0.3501
     33 C         147.3199  142.5370  156.2295 C.3     1  UNL1        0.1636
     34 C         146.2987  142.4234  157.3223 C.3     1  UNL1        0.1255
@<TRIPOS>BOND
     1    21    22    1
     2    22    11    1
     3    11    12   ar
     4    12    13   ar
     5    13    14    1
     6    13    15   ar
     7    15    16    1
     8    15    17   ar
     9    17    18   ar
    10    18     7    1
    11     7     8    2
    12     7     9   am
    13     1     9    1
    14     1     2    1
    15     2     3    1
    16     3     4    1
    17     4    25    1
    18    25    26    1
    19    26    27    1
    20    27    28    2
    21    27    29   am
    22    29    30    1
    23    30    31    1
    24    31    32    1
    25    32    33    1
    26    33    34    1
    27     4     5    1
    28     5     6    1
    29     6    23    1
    30    23    24    1
    31    18    11   ar
    32     6     1    1
    33    34    29    1
    34    14    19    1
    35    14    20    1
    36     9    10    1
