@<TRIPOS>MOLECULE
*****
 34 37 0 0 0
SMALL
GASTEIGER

@<TRIPOS>ATOM
      1 C         141.5709  139.4835  167.1653 C.3     1  UNL1        0.0840
      2 C         142.5997  139.3749  168.2514 C.3     1  UNL1        0.0095
      3 C         142.2281  139.6889  169.6703 C.3     1  UNL1        0.0005
      4 C         140.8279  140.1114  170.0031 C.3     1  UNL1        0.0005
      5 C         139.7991  140.2200  168.9169 C.3     1  UNL1        0.0082
      6 C         140.1706  139.9060  167.4980 C.3     1  UNL1        0.0705
      7 N         142.4102  140.2643  164.8337 N.am    1  UNL1       -0.2815
      8 C         141.9424  139.1696  165.7462 C.2     1  UNL1        0.2261
      9 O         141.8460  137.7610  165.2398 O.2     1  UNL1       -0.2748
     10 H         142.4734  141.1888  165.1661 H       1  UNL1        0.1549
     11 C         142.1746  138.5697  159.8384 C.3     1  UNL1        0.1538
     12 N         142.6734  139.1715  161.1187 N.ar    1  UNL1       -0.2461
     13 C         141.8999  139.2872  162.3986 C.ar    1  UNL1        0.1112
     14 C         142.7817  139.9504  163.4148 C.ar    1  UNL1        0.0929
     15 C         144.1002  140.2446  162.7628 C.ar    1  UNL1        0.1869
     16 N         144.0333  139.7632  161.3437 N.ar    1  UNL1       -0.1639
     17 C         145.2787  140.9044  163.4153 C.3     1  UNL1        0.4377
     18 F         146.4572  141.5641  164.0679 F       1  UNL1       -0.1643
     19 F         145.0430  142.1374  162.5943 F       1  UNL1       -0.1643
     20 F         145.5143  139.6714  164.2364 F       1  UNL1       -0.1643
     21 C         139.1418  140.0146  166.4117 C.2     1  UNL1        0.1731
     22 O         137.9954  139.0485  166.3653 O.2     1  UNL1       -0.2913
     23 C         139.2596  141.0893  165.3720 C.ar    1  UNL1        0.0347
     24 C         138.8745  140.8032  163.9507 C.ar    1  UNL1        0.0029
     25 C         138.9922  141.8779  162.9109 C.ar    1  UNL1        0.0016
     26 C         139.4951  143.2387  163.2924 C.ar    1  UNL1        0.0171
     27 C         139.8802  143.5247  164.7136 C.ar    1  UNL1        0.0016
     28 C         139.7624  142.4500  165.7534 C.ar    1  UNL1        0.0029
     29 C         139.6129  144.3134  162.2526 C.ar    1  UNL1        0.0754
     30 C         140.5260  144.2928  161.0628 C.ar    1  UNL1        0.0409
     31 C         140.3156  145.5641  160.2949 C.ar    1  UNL1        0.1214
     32 N         139.2725  146.3705  161.0102 N.ar    1  UNL1       -0.1711
     33 N         138.8382  145.5975  162.2202 N.ar    1  UNL1       -0.2757
     34 H         138.1632  145.8829  162.8776 H       1  UNL1        0.1889
@<TRIPOS>BOND
     1    11    12    1
     2    12    13   ar
     3    13    14   ar
     4    14     7    1
     5     7     8   am
     6     8     9    2
     7     1     8    1
     8     1     2    1
     9     2     3    1
    10     3     4    1
    11     4     5    1
    12     5     6    1
    13     6    21    1
    14    21    22    2
    15    21    23    1
    16    23    24   ar
    17    24    25   ar
    18    25    26   ar
    19    26    29    1
    20    29    30   ar
    21    30    31   ar
    22    31    32   ar
    23    32    33   ar
    24    26    27   ar
    25    27    28   ar
    26    14    15   ar
    27    15    17    1
    28    17    18    1
    29    17    19    1
    30    17    20    1
    31    15    16   ar
    32    16    12   ar
    33     6     1    1
    34    28    23   ar
    35    33    29   ar
    36     7    10    1
    37    33    34    1
@<TRIPOS>MOLECULE
*****
 34 37 0 0 0
SMALL
GASTEIGER

@<TRIPOS>ATOM
      1 C         140.8565  141.6689  167.8674 C.3     1  UNL1        0.0840
      2 C         140.3056  142.8667  168.5828 C.3     1  UNL1        0.0095
      3 C         141.1066  143.5280  169.6648 C.3     1  UNL1        0.0005
      4 C         142.4586  142.9915  170.0315 C.3     1  UNL1        0.0005
      5 C         143.0095  141.7938  169.3161 C.3     1  UNL1        0.0082
      6 C         142.2084  141.1325  168.2340 C.3     1  UNL1        0.0705
      7 N         140.0263  141.5977  165.4065 N.am    1  UNL1       -0.2815
      8 C         140.0554  141.0076  166.7852 C.2     1  UNL1        0.2261
      9 O         139.2835  139.7561  167.0818 O.2     1  UNL1       -0.2748
     10 H         140.5330  142.4191  165.2118 H       1  UNL1        0.1549
     11 C         138.0964  137.9687  162.0919 C.3     1  UNL1        0.1538
     12 N         138.3383  139.2683  162.8008 N.ar    1  UNL1       -0.2461
     13 C         139.3136  139.4953  163.9176 C.ar    1  UNL1        0.1112
     14 C         139.2253  140.9364  164.3244 C.ar    1  UNL1        0.0929
     15 C         138.1954  141.6000  163.4590 C.ar    1  UNL1        0.1869
     16 N         137.6471  140.5691  162.5174 N.ar    1  UNL1       -0.1639
     17 C         137.7856  143.0415  163.5238 C.3     1  UNL1        0.4377
     18 F         137.3759  144.4830  163.5887 F       1  UNL1       -0.1643
     19 F         137.2454  142.8258  164.9064 F       1  UNL1       -0.1643
     20 F         138.3259  143.2573  162.1413 F       1  UNL1       -0.1643
     21 C         142.7593  139.9347  167.5185 C.2     1  UNL1        0.1731
     22 O         143.0857  138.6875  168.2853 O.2     1  UNL1       -0.2913
     23 C         142.9839  139.9841  166.0363 C.ar    1  UNL1        0.0347
     24 C         143.4759  141.2473  165.3940 C.ar    1  UNL1        0.0029
     25 C         143.7004  141.2967  163.9117 C.ar    1  UNL1        0.0016
     26 C         143.4329  140.0830  163.0717 C.ar    1  UNL1        0.0171
     27 C         142.9409  138.8200  163.7140 C.ar    1  UNL1        0.0016
     28 C         142.7164  138.7705  165.1963 C.ar    1  UNL1        0.0029
     29 C         143.6575  140.1325  161.5894 C.ar    1  UNL1        0.0754
     30 C         143.7134  141.3723  160.7470 C.ar    1  UNL1        0.0409
     31 C         143.9560  140.9569  159.3263 C.ar    1  UNL1        0.1214
     32 N         144.0500  139.4603  159.2906 N.ar    1  UNL1       -0.1711
     33 N         143.8655  138.9508  160.6893 N.ar    1  UNL1       -0.2757
     34 H         143.8786  138.0066  160.9676 H       1  UNL1        0.1889
@<TRIPOS>BOND
     1    11    12    1
     2    12    13   ar
     3    13    14   ar
     4    14     7    1
     5     7     8   am
     6     8     9    2
     7     1     8    1
     8     1     2    1
     9     2     3    1
    10     3     4    1
    11     4     5    1
    12     5     6    1
    13     6    21    1
    14    21    22    2
    15    21    23    1
    16    23    24   ar
    17    24    25   ar
    18    25    26   ar
    19    26    29    1
    20    29    30   ar
    21    30    31   ar
    22    31    32   ar
    23    32    33   ar
    24    26    27   ar
    25    27    28   ar
    26    14    15   ar
    27    15    17    1
    28    17    18    1
    29    17    19    1
    30    17    20    1
    31    15    16   ar
    32    16    12   ar
    33     6     1    1
    34    28    23   ar
    35    33    29   ar
    36     7    10    1
    37    33    34    1
@<TRIPOS>MOLECULE
*****
 34 37 0 0 0
SMALL
GASTEIGER

@<TRIPOS>ATOM
      1 C         142.5034  142.2564  164.1160 C.3     1  UNL1        0.0840
      2 C         142.2074  143.6631  164.5441 C.3     1  UNL1        0.0095
      3 C         142.9584  144.8075  163.9307 C.3     1  UNL1        0.0005
      4 C         144.0056  144.5451  162.8893 C.3     1  UNL1        0.0005
      5 C         144.3017  143.1383  162.4612 C.3     1  UNL1        0.0082
      6 C         143.5506  141.9940  163.0745 C.3     1  UNL1        0.0705
      7 N         140.3806  140.7630  164.2327 N.am    1  UNL1       -0.2815
      8 C         141.7523  141.1119  164.7294 C.2     1  UNL1        0.2261
      9 O         142.3730  140.3165  165.8394 O.2     1  UNL1       -0.2748
     10 H         139.9733  141.2851  163.5042 H       1  UNL1        0.1549
     11 C         137.1663  137.9580  167.3441 C.3     1  UNL1        0.1538
     12 N         138.1521  138.3293  166.2762 N.ar    1  UNL1       -0.2461
     13 C         138.6677  139.7092  165.9934 C.ar    1  UNL1        0.1112
     14 C         139.6296  139.6186  164.8460 C.ar    1  UNL1        0.0929
     15 C         139.7084  138.1826  164.4196 C.ar    1  UNL1        0.1869
     16 N         138.7953  137.3858  165.3035 N.ar    1  UNL1       -0.1639
     17 C         140.5523  137.6389  163.3050 C.3     1  UNL1        0.4377
     18 F         141.3961  137.0953  162.1905 F       1  UNL1       -0.1643
     19 F         141.7528  137.6590  164.2041 F       1  UNL1       -0.1643
     20 F         139.3518  137.6188  162.4060 F       1  UNL1       -0.1643
     21 C         143.8466  140.5871  162.6465 C.2     1  UNL1        0.1731
     22 O         144.8725  139.7788  163.3842 O.2     1  UNL1       -0.2913
     23 C         143.1168  139.9886  161.4807 C.ar    1  UNL1        0.0347
     24 C         141.7587  140.5014  161.1027 C.ar    1  UNL1        0.0029
     25 C         141.0288  139.9028  159.9369 C.ar    1  UNL1        0.0016
     26 C         141.6570  138.7916  159.1491 C.ar    1  UNL1        0.0171
     27 C         143.0150  138.2789  159.5271 C.ar    1  UNL1        0.0016
     28 C         143.7449  138.8774  160.6929 C.ar    1  UNL1        0.0029
     29 C         140.9272  138.1931  157.9833 C.ar    1  UNL1        0.0754
     30 C         141.5231  137.3047  156.9318 C.ar    1  UNL1        0.0409
     31 C         140.4375  136.9404  155.9629 C.ar    1  UNL1        0.1214
     32 N         139.1705  137.6036  156.4157 N.ar    1  UNL1       -0.1711
     33 N         139.4732  138.3778  157.6643 N.ar    1  UNL1       -0.2757
     34 H         138.8303  138.9131  158.1834 H       1  UNL1        0.1889
@<TRIPOS>BOND
     1    11    12    1
     2    12    13   ar
     3    13    14   ar
     4    14     7    1
     5     7     8   am
     6     8     9    2
     7     1     8    1
     8     1     2    1
     9     2     3    1
    10     3     4    1
    11     4     5    1
    12     5     6    1
    13     6    21    1
    14    21    22    2
    15    21    23    1
    16    23    24   ar
    17    24    25   ar
    18    25    26   ar
    19    26    29    1
    20    29    30   ar
    21    30    31   ar
    22    31    32   ar
    23    32    33   ar
    24    26    27   ar
    25    27    28   ar
    26    14    15   ar
    27    15    17    1
    28    17    18    1
    29    17    19    1
    30    17    20    1
    31    15    16   ar
    32    16    12   ar
    33     6     1    1
    34    28    23   ar
    35    33    29   ar
    36     7    10    1
    37    33    34    1
@<TRIPOS>MOLECULE
*****
 34 37 0 0 0
SMALL
GASTEIGER

@<TRIPOS>ATOM
      1 C         139.5939  140.1174  162.1536 C.3     1  UNL1        0.0840
      2 C         138.5804  140.5974  161.1576 C.3     1  UNL1        0.0095
      3 C         137.4350  139.7113  160.7667 C.3     1  UNL1        0.0005
      4 C         137.3031  138.3452  161.3719 C.3     1  UNL1        0.0005
      5 C         138.3167  137.8652  162.3680 C.3     1  UNL1        0.0082
      6 C         139.4621  138.7513  162.7589 C.3     1  UNL1        0.0705
      7 N         140.5146  142.1472  163.4887 N.am    1  UNL1       -0.2815
      8 C         140.7394  141.0035  162.5445 C.2     1  UNL1        0.2261
      9 O         142.1096  140.7459  161.9913 O.2     1  UNL1       -0.2748
     10 H         139.6153  142.3163  163.8518 H       1  UNL1        0.1549
     11 C         144.9743  143.9073  165.7010 C.3     1  UNL1        0.1538
     12 N         143.7099  143.8423  164.8965 N.ar    1  UNL1       -0.2461
     13 C         142.7980  142.6569  164.7813 C.ar    1  UNL1        0.1112
     14 C         141.6600  143.0333  163.8796 C.ar    1  UNL1        0.0929
     15 C         141.8686  144.4514  163.4373 C.ar    1  UNL1        0.1869
     16 N         143.1355  144.9514  164.0658 N.ar    1  UNL1       -0.1639
     17 C         140.9683  145.2324  162.5266 C.3     1  UNL1        0.4377
     18 F         140.0680  146.0133  161.6158 F       1  UNL1       -0.1643
     19 F         141.9386  145.0366  161.3996 F       1  UNL1       -0.1643
     20 F         139.9980  145.4281  163.6535 F       1  UNL1       -0.1643
     21 C         140.4757  138.2712  163.7550 C.2     1  UNL1        0.1731
     22 O         141.4754  137.2241  163.3625 O.2     1  UNL1       -0.2913
     23 C         140.4896  138.8384  165.1435 C.ar    1  UNL1        0.0347
     24 C         141.7950  139.1551  165.8113 C.ar    1  UNL1        0.0029
     25 C         141.8089  139.7223  167.1999 C.ar    1  UNL1        0.0016
     26 C         140.5174  139.9727  167.9207 C.ar    1  UNL1        0.0171
     27 C         139.2121  139.6560  167.2529 C.ar    1  UNL1        0.0016
     28 C         139.1983  139.0888  165.8644 C.ar    1  UNL1        0.0029
     29 C         140.5313  140.5399  169.3093 C.ar    1  UNL1        0.0754
     30 C         140.6552  141.9911  169.6677 C.ar    1  UNL1        0.0409
     31 C         140.6242  142.1036  171.1632 C.ar    1  UNL1        0.1214
     32 N         140.4811  140.7218  171.7290 N.ar    1  UNL1       -0.1711
     33 N         140.4237  139.7554  170.5832 N.ar    1  UNL1       -0.2757
     34 H         140.3316  138.7778  170.6548 H       1  UNL1        0.1889
@<TRIPOS>BOND
     1    11    12    1
     2    12    13   ar
     3    13    14   ar
     4    14     7    1
     5     7     8   am
     6     8     9    2
     7     1     8    1
     8     1     2    1
     9     2     3    1
    10     3     4    1
    11     4     5    1
    12     5     6    1
    13     6    21    1
    14    21    22    2
    15    21    23    1
    16    23    24   ar
    17    24    25   ar
    18    25    26   ar
    19    26    29    1
    20    29    30   ar
    21    30    31   ar
    22    31    32   ar
    23    32    33   ar
    24    26    27   ar
    25    27    28   ar
    26    14    15   ar
    27    15    17    1
    28    17    18    1
    29    17    19    1
    30    17    20    1
    31    15    16   ar
    32    16    12   ar
    33     6     1    1
    34    28    23   ar
    35    33    29   ar
    36     7    10    1
    37    33    34    1
@<TRIPOS>MOLECULE
*****
 34 37 0 0 0
SMALL
GASTEIGER

@<TRIPOS>ATOM
      1 C         142.6092  141.1084  164.6656 C.3     1  UNL1        0.0840
      2 C         141.8772  140.8709  165.9531 C.3     1  UNL1        0.0095
      3 C         142.2551  139.7125  166.8279 C.3     1  UNL1        0.0005
      4 C         143.3650  138.7917  166.4152 C.3     1  UNL1        0.0005
      5 C         144.0970  139.0293  165.1277 C.3     1  UNL1        0.0082
      6 C         143.7191  140.1876  164.2529 C.3     1  UNL1        0.0705
      7 N         140.9580  142.2247  162.9989 N.am    1  UNL1       -0.2815
      8 C         142.2313  142.2669  163.7907 C.2     1  UNL1        0.2261
      9 O         143.1267  143.4674  163.7077 O.2     1  UNL1       -0.2748
     10 H         140.3704  141.4367  163.0534 H       1  UNL1        0.1549
     11 C         140.4508  145.3973  158.8088 C.3     1  UNL1        0.1538
     12 N         140.3470  144.8413  160.1981 N.ar    1  UNL1       -0.2461
     13 C         140.9217  143.5393  160.6719 C.ar    1  UNL1        0.1112
     14 C         140.5801  143.3830  162.1241 C.ar    1  UNL1        0.0929
     15 C         139.7944  144.5884  162.5478 C.ar    1  UNL1        0.1869
     16 N         139.6502  145.4897  161.3575 N.ar    1  UNL1       -0.1639
     17 C         139.2485  144.8471  163.9208 C.3     1  UNL1        0.4377
     18 F         138.7027  145.1058  165.2938 F       1  UNL1       -0.1643
     19 F         137.8657  144.5369  163.4295 F       1  UNL1       -0.1643
     20 F         140.6314  145.1574  164.4121 F       1  UNL1       -0.1643
     21 C         144.4511  140.4253  162.9653 C.2     1  UNL1        0.1731
     22 O         145.6766  141.2900  162.9478 O.2     1  UNL1       -0.2913
     23 C         143.9575  139.7981  161.6952 C.ar    1  UNL1        0.0347
     24 C         143.8064  140.6311  160.4569 C.ar    1  UNL1        0.0029
     25 C         143.3128  140.0039  159.1868 C.ar    1  UNL1        0.0016
     26 C         142.9703  138.5438  159.1551 C.ar    1  UNL1        0.0171
     27 C         143.1215  137.7109  160.3934 C.ar    1  UNL1        0.0016
     28 C         143.6151  138.3381  161.6635 C.ar    1  UNL1        0.0029
     29 C         142.4768  137.9167  157.8850 C.ar    1  UNL1        0.0754
     30 C         141.0430  137.7930  157.4620 C.ar    1  UNL1        0.0409
     31 C         141.0104  137.1030  156.1305 C.ar    1  UNL1        0.1214
     32 N         142.4241  136.8001  155.7307 N.ar    1  UNL1       -0.1711
     33 N         143.3303  137.3030  156.8150 N.ar    1  UNL1       -0.2757
     34 H         144.3128  137.2412  156.8230 H       1  UNL1        0.1889
@<TRIPOS>BOND
     1    11    12    1
     2    12    13   ar
     3    13    14   ar
     4    14     7    1
     5     7     8   am
     6     8     9    2
     7     1     8    1
     8     1     2    1
     9     2     3    1
    10     3     4    1
    11     4     5    1
    12     5     6    1
    13     6    21    1
    14    21    22    2
    15    21    23    1
    16    23    24   ar
    17    24    25   ar
    18    25    26   ar
    19    26    29    1
    20    29    30   ar
    21    30    31   ar
    22    31    32   ar
    23    32    33   ar
    24    26    27   ar
    25    27    28   ar
    26    14    15   ar
    27    15    17    1
    28    17    18    1
    29    17    19    1
    30    17    20    1
    31    15    16   ar
    32    16    12   ar
    33     6     1    1
    34    28    23   ar
    35    33    29   ar
    36     7    10    1
    37    33    34    1
@<TRIPOS>MOLECULE
*****
 34 37 0 0 0
SMALL
GASTEIGER

@<TRIPOS>ATOM
      1 C         139.8720  143.2146  161.2524 C.3     1  UNL1        0.0840
      2 C         140.5149  144.3911  160.5798 C.3     1  UNL1        0.0095
      3 C         140.1976  145.7833  161.0391 C.3     1  UNL1        0.0005
      4 C         139.2372  145.9990  162.1710 C.3     1  UNL1        0.0005
      5 C         138.5942  144.8225  162.8436 C.3     1  UNL1        0.0082
      6 C         138.9116  143.4303  162.3843 C.3     1  UNL1        0.0705
      7 N         141.5105  141.2015  161.1383 N.am    1  UNL1       -0.2815
      8 C         140.1893  141.8223  160.7931 C.2     1  UNL1        0.2261
      9 O         139.1856  141.0509  159.9885 O.2     1  UNL1       -0.2748
     10 H         142.1693  141.7079  161.6664 H       1  UNL1        0.1549
     11 C         142.7702  137.0884  158.0764 C.3     1  UNL1        0.1538
     12 N         142.4069  137.9187  159.2717 N.ar    1  UNL1       -0.2461
     13 C         142.1611  139.3984  159.2755 C.ar    1  UNL1        0.1112
     14 C         141.8279  139.8093  160.6791 C.ar    1  UNL1        0.0929
     15 C         141.8678  138.5836  161.5428 C.ar    1  UNL1        0.1869
     16 N         142.2257  137.4151  160.6730 N.ar    1  UNL1       -0.1639
     17 C         141.5974  138.5348  163.0174 C.3     1  UNL1        0.4377
     18 F         141.3269  138.4861  164.4920 F       1  UNL1       -0.1643
     19 F         140.1468  138.8174  162.7607 F       1  UNL1       -0.1643
     20 F         143.0479  138.2522  163.2741 F       1  UNL1       -0.1643
     21 C         138.2686  142.2537  163.0568 C.2     1  UNL1        0.1731
     22 O         137.0654  141.6032  162.4412 O.2     1  UNL1       -0.2913
     23 C         138.8289  141.7277  164.3450 C.ar    1  UNL1        0.0347
     24 C         138.2686  140.4749  164.9505 C.ar    1  UNL1        0.0029
     25 C         138.8289  139.9489  166.2387 C.ar    1  UNL1        0.0016
     26 C         139.9495  140.6758  166.9214 C.ar    1  UNL1        0.0171
     27 C         140.5097  141.9285  166.3159 C.ar    1  UNL1        0.0016
     28 C         139.9494  142.4545  165.0277 C.ar    1  UNL1        0.0029
     29 C         140.5098  140.1498  168.2096 C.ar    1  UNL1        0.0754
     30 C         141.9495  139.8255  168.4776 C.ar    1  UNL1        0.0409
     31 C         142.0583  139.3310  169.8896 C.ar    1  UNL1        0.1214
     32 N         140.6857  139.3497  170.4942 N.ar    1  UNL1       -0.1711
     33 N         139.7287  139.8557  169.4559 N.ar    1  UNL1       -0.2757
     34 H         138.7582  139.9740  169.5720 H       1  UNL1        0.1889
@<TRIPOS>BOND
     1    11    12    1
     2    12    13   ar
     3    13    14   ar
     4    14     7    1
     5     7     8   am
     6     8     9    2
     7     1     8    1
     8     1     2    1
     9     2     3    1
    10     3     4    1
    11     4     5    1
    12     5     6    1
    13     6    21    1
    14    21    22    2
    15    21    23    1
    16    23    24   ar
    17    24    25   ar
    18    25    26   ar
    19    26    29    1
    20    29    30   ar
    21    30    31   ar
    22    31    32   ar
    23    32    33   ar
    24    26    27   ar
    25    27    28   ar
    26    14    15   ar
    27    15    17    1
    28    17    18    1
    29    17    19    1
    30    17    20    1
    31    15    16   ar
    32    16    12   ar
    33     6     1    1
    34    28    23   ar
    35    33    29   ar
    36     7    10    1
    37    33    34    1
@<TRIPOS>MOLECULE
*****
 34 37 0 0 0
SMALL
GASTEIGER

@<TRIPOS>ATOM
      1 C         140.6523  140.4068  167.5604 C.3     1  UNL1        0.0840
      2 C         139.5438  139.7254  168.3067 C.3     1  UNL1        0.0095
      3 C         138.9556  140.3685  169.5275 C.3     1  UNL1        0.0005
      4 C         139.4759  141.6929  170.0020 C.3     1  UNL1        0.0005
      5 C         140.5843  142.3743  169.2557 C.3     1  UNL1        0.0082
      6 C         141.1725  141.7313  168.0349 C.3     1  UNL1        0.0705
      7 N         140.5208  139.8494  165.0262 N.am    1  UNL1       -0.2815
      8 C         141.2405  139.7638  166.3395 C.2     1  UNL1        0.2261
      9 O         142.5484  139.0352  166.4319 O.2     1  UNL1       -0.2748
     10 H         139.6624  140.3276  164.9655 H       1  UNL1        0.1549
     11 C         143.9869  137.8859  161.5604 C.3     1  UNL1        0.1538
     12 N         142.7022  138.3039  162.2123 N.ar    1  UNL1       -0.2461
     13 C         142.5679  138.9691  163.5499 C.ar    1  UNL1        0.1112
     14 C         141.1090  139.2064  163.8053 C.ar    1  UNL1        0.0929
     15 C         140.3416  138.6878  162.6254 C.ar    1  UNL1        0.1869
     16 N         141.3262  138.1300  161.6408 N.ar    1  UNL1       -0.1639
     17 C         138.8512  138.7211  162.4593 C.3     1  UNL1        0.4377
     18 F         137.3608  138.7544  162.2932 F       1  UNL1       -0.1643
     19 F         138.7651  137.3055  162.9478 F       1  UNL1       -0.1643
     20 F         138.9373  140.1367  161.9708 F       1  UNL1       -0.1643
     21 C         142.2810  142.4127  167.2885 C.2     1  UNL1        0.1731
     22 O         143.6343  142.5536  167.9198 O.2     1  UNL1       -0.2913
     23 C         142.0361  142.9531  165.9109 C.ar    1  UNL1        0.0347
     24 C         143.1594  143.0143  164.9186 C.ar    1  UNL1        0.0029
     25 C         142.9145  143.5548  163.5409 C.ar    1  UNL1        0.0016
     26 C         141.5463  144.0340  163.1555 C.ar    1  UNL1        0.0171
     27 C         140.4231  143.9727  164.1478 C.ar    1  UNL1        0.0016
     28 C         140.6680  143.4323  165.5255 C.ar    1  UNL1        0.0029
     29 C         141.3013  144.5744  161.7779 C.ar    1  UNL1        0.0754
     30 C         139.9752  144.9992  161.2203 C.ar    1  UNL1        0.0409
     31 C         140.1938  145.4723  159.8137 C.ar    1  UNL1        0.1214
     32 N         141.6551  145.3398  159.5020 N.ar    1  UNL1       -0.1711
     33 N         142.3395  144.7849  160.7159 N.ar    1  UNL1       -0.2757
     34 H         143.3013  144.5926  160.8007 H       1  UNL1        0.1889
@<TRIPOS>BOND
     1    11    12    1
     2    12    13   ar
     3    13    14   ar
     4    14     7    1
     5     7     8   am
     6     8     9    2
     7     1     8    1
     8     1     2    1
     9     2     3    1
    10     3     4    1
    11     4     5    1
    12     5     6    1
    13     6    21    1
    14    21    22    2
    15    21    23    1
    16    23    24   ar
    17    24    25   ar
    18    25    26   ar
    19    26    29    1
    20    29    30   ar
    21    30    31   ar
    22    31    32   ar
    23    32    33   ar
    24    26    27   ar
    25    27    28   ar
    26    14    15   ar
    27    15    17    1
    28    17    18    1
    29    17    19    1
    30    17    20    1
    31    15    16   ar
    32    16    12   ar
    33     6     1    1
    34    28    23   ar
    35    33    29   ar
    36     7    10    1
    37    33    34    1
@<TRIPOS>MOLECULE
*****
 34 37 0 0 0
SMALL
GASTEIGER

@<TRIPOS>ATOM
      1 C         139.8166  140.0950  163.4501 C.3     1  UNL1        0.0840
      2 C         140.1114  139.9077  164.9089 C.3     1  UNL1        0.0095
      3 C         139.7751  138.6098  165.5813 C.3     1  UNL1        0.0005
      4 C         139.1441  137.4991  164.7950 C.3     1  UNL1        0.0005
      5 C         138.8494  137.6864  163.3363 C.3     1  UNL1        0.0082
      6 C         139.1857  138.9843  162.6638 C.3     1  UNL1        0.0705
      7 N         139.1274  142.0866  161.9307 N.am    1  UNL1       -0.2815
      8 C         140.1529  141.3929  162.7775 C.2     1  UNL1        0.2261
      9 O         141.5147  141.9972  162.9518 O.2     1  UNL1       -0.2748
     10 H         138.2336  141.6899  161.8163 H       1  UNL1        0.1549
     11 C         140.4500  145.6466  158.2624 C.3     1  UNL1        0.1538
     12 N         140.0715  145.0209  159.5720 N.ar    1  UNL1       -0.2461
     13 C         139.8078  143.5634  159.8092 C.ar    1  UNL1        0.1112
     14 C         139.4636  143.3845  161.2582 C.ar    1  UNL1        0.0929
     15 C         139.5146  144.7314  161.9165 C.ar    1  UNL1        0.1869
     16 N         139.8904  145.7427  160.8744 N.ar    1  UNL1       -0.1639
     17 C         139.2384  145.0168  163.3629 C.3     1  UNL1        0.4377
     18 F         138.9622  145.3022  164.8094 F       1  UNL1       -0.1643
     19 F         140.7004  145.2597  163.5942 F       1  UNL1       -0.1643
     20 F         137.7764  144.7738  163.1317 F       1  UNL1       -0.1643
     21 C         138.8909  139.1716  161.2050 C.2     1  UNL1        0.1731
     22 O         137.5783  139.7555  160.7739 O.2     1  UNL1       -0.2913
     23 C         139.9090  138.7749  160.1772 C.ar    1  UNL1        0.0347
     24 C         139.5396  138.7574  158.7235 C.ar    1  UNL1        0.0029
     25 C         140.5576  138.3607  157.6957 C.ar    1  UNL1        0.0016
     26 C         141.9450  137.9815  158.1217 C.ar    1  UNL1        0.0171
     27 C         142.3143  137.9991  159.5754 C.ar    1  UNL1        0.0016
     28 C         141.2963  138.3957  160.6032 C.ar    1  UNL1        0.0029
     29 C         142.9631  137.5849  157.0940 C.ar    1  UNL1        0.0754
     30 C         143.1098  136.2255  156.4772 C.ar    1  UNL1        0.0409
     31 C         144.2505  136.2784  155.5046 C.ar    1  UNL1        0.1214
     32 N         144.8088  137.6705  155.5203 N.ar    1  UNL1       -0.1711
     33 N         144.0131  138.4779  156.5026 N.ar    1  UNL1       -0.2757
     34 H         144.1551  139.4274  156.7208 H       1  UNL1        0.1889
@<TRIPOS>BOND
     1    11    12    1
     2    12    13   ar
     3    13    14   ar
     4    14     7    1
     5     7     8   am
     6     8     9    2
     7     1     8    1
     8     1     2    1
     9     2     3    1
    10     3     4    1
    11     4     5    1
    12     5     6    1
    13     6    21    1
    14    21    22    2
    15    21    23    1
    16    23    24   ar
    17    24    25   ar
    18    25    26   ar
    19    26    29    1
    20    29    30   ar
    21    30    31   ar
    22    31    32   ar
    23    32    33   ar
    24    26    27   ar
    25    27    28   ar
    26    14    15   ar
    27    15    17    1
    28    17    18    1
    29    17    19    1
    30    17    20    1
    31    15    16   ar
    32    16    12   ar
    33     6     1    1
    34    28    23   ar
    35    33    29   ar
    36     7    10    1
    37    33    34    1
@<TRIPOS>MOLECULE
*****
 34 37 0 0 0
SMALL
GASTEIGER

@<TRIPOS>ATOM
      1 C         143.1560  140.8274  161.0725 C.3     1  UNL1        0.0840
      2 C         143.1054  139.5946  160.2196 C.3     1  UNL1        0.0095
      3 C         143.5798  138.2822  160.7697 C.3     1  UNL1        0.0005
      4 C         144.1047  138.2027  162.1725 C.3     1  UNL1        0.0005
      5 C         144.1554  139.4355  163.0254 C.3     1  UNL1        0.0082
      6 C         143.6810  140.7479  162.4754 C.3     1  UNL1        0.0705
      7 N         141.2437  142.5401  160.6721 N.am    1  UNL1       -0.2815
      8 C         142.6816  142.1399  160.5225 C.2     1  UNL1        0.2261
      9 O         143.6451  143.0522  159.8229 O.2     1  UNL1       -0.2748
     10 H         140.6114  141.9413  161.1313 H       1  UNL1        0.1549
     11 C         139.8409  146.3647  157.3129 C.3     1  UNL1        0.1538
     12 N         140.1245  145.6105  158.5781 N.ar    1  UNL1       -0.2461
     13 C         140.6284  144.2006  158.6700 C.ar    1  UNL1        0.1112
     14 C         140.7693  143.8525  160.1222 C.ar    1  UNL1        0.0929
     15 C         140.3526  145.0472  160.9278 C.ar    1  UNL1        0.1869
     16 N         139.9541  146.1337  159.9736 N.ar    1  UNL1       -0.1639
     17 C         140.3371  145.1392  162.4249 C.3     1  UNL1        0.4377
     18 F         140.3217  145.2312  163.9220 F       1  UNL1       -0.1643
     19 F         141.8302  144.9978  162.4491 F       1  UNL1       -0.1643
     20 F         138.8440  145.2806  162.4008 F       1  UNL1       -0.1643
     21 C         143.7316  141.9809  163.3282 C.2     1  UNL1        0.1731
     22 O         144.5492  143.1608  162.8931 O.2     1  UNL1       -0.2913
     23 C         142.9646  142.0339  164.6162 C.ar    1  UNL1        0.0347
     24 C         143.6966  142.1416  165.9211 C.ar    1  UNL1        0.0029
     25 C         142.9296  142.1945  167.2091 C.ar    1  UNL1        0.0016
     26 C         141.4306  142.1399  167.1922 C.ar    1  UNL1        0.0171
     27 C         140.6987  142.0322  165.8873 C.ar    1  UNL1        0.0016
     28 C         141.4657  141.9792  164.5994 C.ar    1  UNL1        0.0029
     29 C         140.6636  142.1928  168.4802 C.ar    1  UNL1        0.0754
     30 C         140.6363  143.3424  169.4435 C.ar    1  UNL1        0.0409
     31 C         139.7451  142.9656  170.5897 C.ar    1  UNL1        0.1214
     32 N         139.2216  141.5832  170.3348 N.ar    1  UNL1       -0.1711
     33 N         139.7893  141.1056  169.0311 N.ar    1  UNL1       -0.2757
     34 H         139.6181  140.2320  168.6108 H       1  UNL1        0.1889
@<TRIPOS>BOND
     1    11    12    1
     2    12    13   ar
     3    13    14   ar
     4    14     7    1
     5     7     8   am
     6     8     9    2
     7     1     8    1
     8     1     2    1
     9     2     3    1
    10     3     4    1
    11     4     5    1
    12     5     6    1
    13     6    21    1
    14    21    22    2
    15    21    23    1
    16    23    24   ar
    17    24    25   ar
    18    25    26   ar
    19    26    29    1
    20    29    30   ar
    21    30    31   ar
    22    31    32   ar
    23    32    33   ar
    24    26    27   ar
    25    27    28   ar
    26    14    15   ar
    27    15    17    1
    28    17    18    1
    29    17    19    1
    30    17    20    1
    31    15    16   ar
    32    16    12   ar
    33     6     1    1
    34    28    23   ar
    35    33    29   ar
    36     7    10    1
    37    33    34    1
