@<TRIPOS>MOLECULE
*****
 27 29 0 0 0
SMALL
GASTEIGER

@<TRIPOS>ATOM
      1 N         142.2564  142.0789  164.5930 N.pl3   1  UNL1       -0.3037
      2 C         141.9516  142.1050  166.0614 C.ar    1  UNL1        0.0490
      3 C         140.5328  141.9917  166.5350 C.ar    1  UNL1        0.0153
      4 C         140.2280  142.0177  168.0035 C.ar    1  UNL1        0.0124
      5 C         141.3420  142.1571  168.9984 C.ar    1  UNL1        0.0791
      6 C         142.7607  142.2704  168.5248 C.ar    1  UNL1        0.0685
      7 CL        143.8747  142.4098  169.5196 Cl      1  UNL1       -0.0815
      8 C         143.0655  142.2444  167.0563 C.ar    1  UNL1        0.0266
      9 C         141.0371  142.1832  170.4668 C.1     1  UNL1        0.1013
     10 N         140.7323  142.2093  171.9353 N.1     1  UNL1       -0.1908
     11 C         141.8574  143.2343  163.7235 C.3     1  UNL1        0.0922
     12 C         141.5573  144.6275  164.1915 C.3     1  UNL1        0.0403
     13 C         141.2029  145.4536  162.9907 C.3     1  UNL1        0.0972
     14 N         141.2841  144.5710  161.7805 N.3     1  UNL1       -0.1576
     15 C         141.6886  143.1993  162.2335 C.3     1  UNL1        0.1151
     16 S         141.0090  144.9869  160.3658 S.O2    1  UNL1        0.0457
     17 C         140.7340  145.4029  158.9512 C.3     1  UNL1        0.1960
     18 O         139.6526  145.4799  160.7745 O.2     1  UNL1       -0.1572
     19 O         142.3654  144.4939  159.9571 O.2     1  UNL1       -0.1572
     20 C         142.9602  140.8975  163.9939 C.3     1  UNL1        0.1174
     21 C         143.1682  138.6775  166.0011 C.3     1  UNL1        0.0308
     22 C         142.3199  138.5041  164.7762 C.ar    1  UNL1       -0.0242
     23 C         141.5756  137.2208  164.5549 C.ar    1  UNL1       -0.0045
     24 C         140.7273  137.0474  163.3300 C.ar    1  UNL1       -0.0003
     25 C         140.6233  138.1573  162.3264 C.ar    1  UNL1       -0.0003
     26 C         141.3675  139.4406  162.5478 C.ar    1  UNL1       -0.0029
     27 C         142.2158  139.6140  163.7726 C.ar    1  UNL1       -0.0064
@<TRIPOS>BOND
     1    21    22    1
     2    22    23   ar
     3    23    24   ar
     4    24    25   ar
     5    25    26   ar
     6    26    27   ar
     7    27    20    1
     8    20     1    1
     9     1     2    1
    10     2     3   ar
    11     3     4   ar
    12     4     5   ar
    13     5     9    1
    14     9    10    3
    15     5     6   ar
    16     6     7    1
    17     6     8   ar
    18    11     1    1
    19    11    12    1
    20    12    13    1
    21    13    14    1
    22    14    16    1
    23    16    17    1
    24    16    18    2
    25    16    19    2
    26    14    15    1
    27    27    22   ar
    28     8     2   ar
    29    15    11    1
@<TRIPOS>MOLECULE
*****
 27 29 0 0 0
SMALL
GASTEIGER

@<TRIPOS>ATOM
      1 N         139.2817  140.9012  165.8966 N.pl3   1  UNL1       -0.3037
      2 C         139.3130  142.0715  164.9589 C.ar    1  UNL1        0.0490
      3 C         138.0798  142.9001  164.7521 C.ar    1  UNL1        0.0153
      4 C         138.1112  144.0705  163.8144 C.ar    1  UNL1        0.0124
      5 C         139.3758  144.4123  163.0836 C.ar    1  UNL1        0.0791
      6 C         140.6089  143.5837  163.2904 C.ar    1  UNL1        0.0685
      7 CL        141.8735  143.9255  162.5596 Cl      1  UNL1       -0.0815
      8 C         140.5775  142.4133  164.2281 C.ar    1  UNL1        0.0266
      9 C         139.4072  145.5827  162.1459 C.1     1  UNL1        0.1013
     10 N         139.4386  146.7530  161.2082 N.1     1  UNL1       -0.1908
     11 C         139.8872  141.0192  167.2639 C.3     1  UNL1        0.0922
     12 C         139.5930  140.1332  168.4380 C.3     1  UNL1        0.0403
     13 C         140.4172  140.6103  169.5968 C.3     1  UNL1        0.0972
     14 N         141.2209  141.7912  169.1389 N.3     1  UNL1       -0.1576
     15 C         140.8934  142.0439  167.6970 C.3     1  UNL1        0.1151
     16 S         142.1832  142.5808  169.9759 S.O2    1  UNL1        0.0457
     17 C         143.1455  143.3703  170.8129 C.3     1  UNL1        0.1960
     18 O         143.1259  142.6655  168.8122 O.2     1  UNL1       -0.1572
     19 O         141.2406  142.4960  171.1396 O.2     1  UNL1       -0.1572
     20 C         138.6448  139.6128  165.4670 C.3     1  UNL1        0.1174
     21 C         140.9923  137.8472  164.8571 C.3     1  UNL1        0.0308
     22 C         140.0293  138.2174  163.7682 C.ar    1  UNL1       -0.0242
     23 C         140.2400  137.7047  162.3744 C.ar    1  UNL1       -0.0045
     24 C         139.2770  138.0749  161.2855 C.ar    1  UNL1       -0.0003
     25 C         138.1033  138.9577  161.5905 C.ar    1  UNL1       -0.0003
     26 C         137.8926  139.4703  162.9843 C.ar    1  UNL1       -0.0029
     27 C         138.8556  139.1002  164.0731 C.ar    1  UNL1       -0.0064
@<TRIPOS>BOND
     1    21    22    1
     2    22    23   ar
     3    23    24   ar
     4    24    25   ar
     5    25    26   ar
     6    26    27   ar
     7    27    20    1
     8    20     1    1
     9     1     2    1
    10     2     3   ar
    11     3     4   ar
    12     4     5   ar
    13     5     9    1
    14     9    10    3
    15     5     6   ar
    16     6     7    1
    17     6     8   ar
    18    11     1    1
    19    11    12    1
    20    12    13    1
    21    13    14    1
    22    14    16    1
    23    16    17    1
    24    16    18    2
    25    16    19    2
    26    14    15    1
    27    27    22   ar
    28     8     2   ar
    29    15    11    1
@<TRIPOS>MOLECULE
*****
 27 29 0 0 0
SMALL
GASTEIGER

@<TRIPOS>ATOM
      1 N         139.7152  142.6121  163.7831 N.pl3   1  UNL1       -0.3037
      2 C         140.5733  142.5108  165.0092 C.ar    1  UNL1        0.0490
      3 C         141.9672  141.9661  164.9062 C.ar    1  UNL1        0.0153
      4 C         142.8253  141.8647  166.1324 C.ar    1  UNL1        0.0124
      5 C         142.2895  142.3082  167.4615 C.ar    1  UNL1        0.0791
      6 C         140.8957  142.8528  167.5644 C.ar    1  UNL1        0.0685
      7 CL        140.3600  143.2963  168.8935 Cl      1  UNL1       -0.0815
      8 C         140.0377  142.9542  166.3382 C.ar    1  UNL1        0.0266
      9 C         143.1476  142.2068  168.6876 C.1     1  UNL1        0.1013
     10 N         144.0057  142.1055  169.9137 N.1     1  UNL1       -0.1908
     11 C         139.9585  143.7058  162.7856 C.3     1  UNL1        0.0922
     12 C         139.6447  145.1599  162.9776 C.3     1  UNL1        0.0403
     13 C         140.0506  145.8901  161.7317 C.3     1  UNL1        0.0972
     14 N         140.6153  144.8872  160.7698 N.3     1  UNL1       -0.1576
     15 C         140.5584  143.5371  161.4212 C.3     1  UNL1        0.1151
     16 S         141.1441  145.1824  159.3975 S.O2    1  UNL1        0.0457
     17 C         141.6729  145.4777  158.0252 C.3     1  UNL1        0.1960
     18 O         142.4340  144.5019  159.7481 O.2     1  UNL1       -0.1572
     19 O         139.8542  145.8630  159.0469 O.2     1  UNL1       -0.1572
     20 C         138.6139  141.6198  163.5543 C.3     1  UNL1        0.1174
     21 C         140.0414  139.4878  161.9997 C.3     1  UNL1        0.0308
     22 C         139.4401  139.1663  163.3358 C.ar    1  UNL1       -0.0242
     23 C         139.5527  137.7789  163.8946 C.ar    1  UNL1       -0.0045
     24 C         138.9514  137.4574  165.2307 C.ar    1  UNL1       -0.0003
     25 C         138.2377  138.5234  166.0080 C.ar    1  UNL1       -0.0003
     26 C         138.1252  139.9109  165.4492 C.ar    1  UNL1       -0.0029
     27 C         138.7264  140.2323  164.1131 C.ar    1  UNL1       -0.0064
@<TRIPOS>BOND
     1    21    22    1
     2    22    23   ar
     3    23    24   ar
     4    24    25   ar
     5    25    26   ar
     6    26    27   ar
     7    27    20    1
     8    20     1    1
     9     1     2    1
    10     2     3   ar
    11     3     4   ar
    12     4     5   ar
    13     5     9    1
    14     9    10    3
    15     5     6   ar
    16     6     7    1
    17     6     8   ar
    18    11     1    1
    19    11    12    1
    20    12    13    1
    21    13    14    1
    22    14    16    1
    23    16    17    1
    24    16    18    2
    25    16    19    2
    26    14    15    1
    27    27    22   ar
    28     8     2   ar
    29    15    11    1
@<TRIPOS>MOLECULE
*****
 27 29 0 0 0
SMALL
GASTEIGER

@<TRIPOS>ATOM
      1 N         140.8978  139.3509  165.2301 N.pl3   1  UNL1       -0.3037
      2 C         140.8303  139.9190  166.6167 C.ar    1  UNL1        0.0490
      3 C         139.5577  139.8238  167.4051 C.ar    1  UNL1        0.0153
      4 C         139.4902  140.3919  168.7917 C.ar    1  UNL1        0.0124
      5 C         140.6953  141.0552  169.3899 C.ar    1  UNL1        0.0791
      6 C         141.9678  141.1503  168.6016 C.ar    1  UNL1        0.0685
      7 CL        143.1730  141.8136  169.1998 Cl      1  UNL1       -0.0815
      8 C         142.0353  140.5822  167.2150 C.ar    1  UNL1        0.0266
      9 C         140.6278  141.6233  170.7766 C.1     1  UNL1        0.1013
     10 N         140.5603  142.1914  172.1632 N.1     1  UNL1       -0.1908
     11 C         142.0972  139.6152  164.3689 C.3     1  UNL1        0.0922
     12 C         143.3042  138.7335  164.2436 C.3     1  UNL1        0.0403
     13 C         144.2531  139.3810  163.2791 C.3     1  UNL1        0.0972
     14 N         143.6325  140.6629  162.8082 N.3     1  UNL1       -0.1576
     15 C         142.3000  140.8076  163.4817 C.3     1  UNL1        0.1151
     16 S         144.2381  141.6301  161.8347 S.O2    1  UNL1        0.0457
     17 C         144.8436  142.5974  160.8612 C.3     1  UNL1        0.1960
     18 O         145.5629  141.4955  162.5250 O.2     1  UNL1       -0.1572
     19 O         142.9132  141.7647  161.1443 O.2     1  UNL1       -0.1572
     20 C         139.7660  138.5185  164.7047 C.3     1  UNL1        0.1174
     21 C         137.8971  140.8274  164.2848 C.3     1  UNL1        0.0308
     22 C         138.2706  139.9453  163.1305 C.ar    1  UNL1       -0.0242
     23 C         137.7096  140.2177  161.7663 C.ar    1  UNL1       -0.0045
     24 C         138.0831  139.3356  160.6120 C.ar    1  UNL1       -0.0003
     25 C         139.0175  138.1811  160.8219 C.ar    1  UNL1       -0.0003
     26 C         139.5785  137.9088  162.1861 C.ar    1  UNL1       -0.0029
     27 C         139.2050  138.7909  163.3404 C.ar    1  UNL1       -0.0064
@<TRIPOS>BOND
     1    21    22    1
     2    22    23   ar
     3    23    24   ar
     4    24    25   ar
     5    25    26   ar
     6    26    27   ar
     7    27    20    1
     8    20     1    1
     9     1     2    1
    10     2     3   ar
    11     3     4   ar
    12     4     5   ar
    13     5     9    1
    14     9    10    3
    15     5     6   ar
    16     6     7    1
    17     6     8   ar
    18    11     1    1
    19    11    12    1
    20    12    13    1
    21    13    14    1
    22    14    16    1
    23    16    17    1
    24    16    18    2
    25    16    19    2
    26    14    15    1
    27    27    22   ar
    28     8     2   ar
    29    15    11    1
@<TRIPOS>MOLECULE
*****
 27 29 0 0 0
SMALL
GASTEIGER

@<TRIPOS>ATOM
      1 N         143.1751  141.1056  165.1865 N.pl3   1  UNL1       -0.3037
      2 C         142.6225  141.3162  166.5650 C.ar    1  UNL1        0.0490
      3 C         143.3122  142.2500  167.5150 C.ar    1  UNL1        0.0153
      4 C         142.7595  142.4606  168.8934 C.ar    1  UNL1        0.0124
      5 C         141.5171  141.7374  169.3219 C.ar    1  UNL1        0.0791
      6 C         140.8274  140.8037  168.3719 C.ar    1  UNL1        0.0685
      7 CL        139.5850  140.0806  168.8004 Cl      1  UNL1       -0.0815
      8 C         141.3801  140.5931  166.9934 C.ar    1  UNL1        0.0266
      9 C         140.9644  141.9480  170.7004 C.1     1  UNL1        0.1013
     10 N         140.4117  142.1586  172.0789 N.1     1  UNL1       -0.1908
     11 C         143.1486  142.2254  164.1887 C.3     1  UNL1        0.0922
     12 C         144.3172  143.0750  163.7855 C.3     1  UNL1        0.0403
     13 C         143.8397  144.0667  162.7666 C.3     1  UNL1        0.0972
     14 N         142.3758  143.8301  162.5399 N.3     1  UNL1       -0.1576
     15 C         141.9487  142.6920  163.4189 C.3     1  UNL1        0.1151
     16 S         141.4940  144.5968  161.5995 S.O2    1  UNL1        0.0457
     17 C         140.6121  145.3636  160.6591 C.3     1  UNL1        0.1960
     18 O         142.4739  144.3613  160.4885 O.2     1  UNL1       -0.1572
     19 O         140.5140  144.8324  162.7104 O.2     1  UNL1       -0.1572
     20 C         143.7543  139.7754  164.8058 C.3     1  UNL1        0.1174
     21 C         141.4243  137.9037  164.5458 C.3     1  UNL1        0.0308
     22 C         142.2605  138.2317  163.3445 C.ar    1  UNL1       -0.0242
     23 C         141.9317  137.6238  162.0132 C.ar    1  UNL1       -0.0045
     24 C         142.7679  137.9518  160.8119 C.ar    1  UNL1       -0.0003
     25 C         143.9329  138.8876  160.9418 C.ar    1  UNL1       -0.0003
     26 C         144.2617  139.4955  162.2731 C.ar    1  UNL1       -0.0029
     27 C         143.4255  139.1675  163.4745 C.ar    1  UNL1       -0.0064
@<TRIPOS>BOND
     1    21    22    1
     2    22    23   ar
     3    23    24   ar
     4    24    25   ar
     5    25    26   ar
     6    26    27   ar
     7    27    20    1
     8    20     1    1
     9     1     2    1
    10     2     3   ar
    11     3     4   ar
    12     4     5   ar
    13     5     9    1
    14     9    10    3
    15     5     6   ar
    16     6     7    1
    17     6     8   ar
    18    11     1    1
    19    11    12    1
    20    12    13    1
    21    13    14    1
    22    14    16    1
    23    16    17    1
    24    16    18    2
    25    16    19    2
    26    14    15    1
    27    27    22   ar
    28     8     2   ar
    29    15    11    1
@<TRIPOS>MOLECULE
*****
 27 29 0 0 0
SMALL
GASTEIGER

@<TRIPOS>ATOM
      1 N         141.9271  140.9181  164.7571 N.pl3   1  UNL1       -0.3037
      2 C         141.6466  141.1364  166.2144 C.ar    1  UNL1        0.0490
      3 C         140.9149  142.3674  166.6611 C.ar    1  UNL1        0.0153
      4 C         140.6345  142.5858  168.1184 C.ar    1  UNL1        0.0124
      5 C         141.0858  141.5732  169.1290 C.ar    1  UNL1        0.0791
      6 C         141.8174  140.3423  168.6822 C.ar    1  UNL1        0.0685
      7 CL        142.2686  139.3297  169.6928 Cl      1  UNL1       -0.0815
      8 C         142.0978  140.1239  167.2249 C.ar    1  UNL1        0.0266
      9 C         140.8053  141.7915  170.5863 C.1     1  UNL1        0.1013
     10 N         140.5249  142.0099  172.0435 N.1     1  UNL1       -0.1908
     11 C         142.1352  142.0937  163.8490 C.3     1  UNL1        0.0922
     12 C         143.3871  142.9128  163.7400 C.3     1  UNL1        0.0403
     13 C         143.1536  143.9820  162.7142 C.3     1  UNL1        0.0972
     14 N         141.7574  143.8237  162.1891 N.3     1  UNL1       -0.1576
     15 C         141.1280  142.6566  162.8906 C.3     1  UNL1        0.1151
     16 S         141.1052  144.6817  161.1459 S.O2    1  UNL1        0.0457
     17 C         140.4529  145.5397  160.1027 C.3     1  UNL1        0.1960
     18 O         142.2843  144.4783  160.2414 O.2     1  UNL1       -0.1572
     19 O         139.9260  144.8851  162.0504 O.2     1  UNL1       -0.1572
     20 C         141.9993  139.5241  164.2079 C.3     1  UNL1        0.1174
     21 C         139.4428  138.3329  165.2303 C.3     1  UNL1        0.0308
     22 C         139.6787  138.4479  163.7535 C.ar    1  UNL1       -0.0242
     23 C         138.6364  137.9673  162.7878 C.ar    1  UNL1       -0.0045
     24 C         138.8723  138.0823  161.3110 C.ar    1  UNL1       -0.0003
     25 C         140.1505  138.6779  160.7997 C.ar    1  UNL1       -0.0003
     26 C         141.1928  139.1585  161.7654 C.ar    1  UNL1       -0.0029
     27 C         140.9569  139.0435  163.2423 C.ar    1  UNL1       -0.0064
@<TRIPOS>BOND
     1    21    22    1
     2    22    23   ar
     3    23    24   ar
     4    24    25   ar
     5    25    26   ar
     6    26    27   ar
     7    27    20    1
     8    20     1    1
     9     1     2    1
    10     2     3   ar
    11     3     4   ar
    12     4     5   ar
    13     5     9    1
    14     9    10    3
    15     5     6   ar
    16     6     7    1
    17     6     8   ar
    18    11     1    1
    19    11    12    1
    20    12    13    1
    21    13    14    1
    22    14    16    1
    23    16    17    1
    24    16    18    2
    25    16    19    2
    26    14    15    1
    27    27    22   ar
    28     8     2   ar
    29    15    11    1
@<TRIPOS>MOLECULE
*****
 27 29 0 0 0
SMALL
GASTEIGER

@<TRIPOS>ATOM
      1 N         140.6068  140.1320  163.3223 N.pl3   1  UNL1       -0.3037
      2 C         140.1916  140.1039  164.7635 C.ar    1  UNL1        0.0490
      3 C         140.8983  140.9690  165.7646 C.ar    1  UNL1        0.0153
      4 C         140.4832  140.9409  167.2057 C.ar    1  UNL1        0.0124
      5 C         139.3613  140.0476  167.6457 C.ar    1  UNL1        0.0791
      6 C         138.6546  139.1825  166.6446 C.ar    1  UNL1        0.0685
      7 CL        137.5328  138.2892  167.0846 Cl      1  UNL1       -0.0815
      8 C         139.0698  139.2107  165.2035 C.ar    1  UNL1        0.0266
      9 C         138.9461  140.0194  169.0868 C.1     1  UNL1        0.1013
     10 N         138.5309  139.9913  170.5280 N.1     1  UNL1       -0.1908
     11 C         139.7398  140.8132  162.3053 C.3     1  UNL1        0.0922
     12 C         138.8734  142.0135  162.5474 C.3     1  UNL1        0.0403
     13 C         138.1852  142.3558  161.2592 C.3     1  UNL1        0.0972
     14 N         138.6264  141.3671  160.2210 N.3     1  UNL1       -0.1576
     15 C         139.5873  140.4137  160.8675 C.3     1  UNL1        0.1151
     16 S         138.1844  141.3371  158.7879 S.O2    1  UNL1        0.0457
     17 C         137.7424  141.3071  157.3549 C.3     1  UNL1        0.1960
     18 O         138.1610  142.8367  158.7637 O.2     1  UNL1       -0.1572
     19 O         138.2079  139.8375  158.8121 O.2     1  UNL1       -0.1572
     20 C         141.8888  139.4790  162.8983 C.3     1  UNL1        0.1174
     21 C         143.8254  138.9079  165.1172 C.3     1  UNL1        0.0308
     22 C         144.1484  139.9523  164.0901 C.ar    1  UNL1       -0.0242
     23 C         145.4397  140.7111  164.1725 C.ar    1  UNL1       -0.0045
     24 C         145.7626  141.7555  163.1454 C.ar    1  UNL1       -0.0003
     25 C         144.7944  142.0411  162.0359 C.ar    1  UNL1       -0.0003
     26 C         143.5031  141.2822  161.9536 C.ar    1  UNL1       -0.0029
     27 C         143.1802  140.2378  162.9807 C.ar    1  UNL1       -0.0064
@<TRIPOS>BOND
     1    21    22    1
     2    22    23   ar
     3    23    24   ar
     4    24    25   ar
     5    25    26   ar
     6    26    27   ar
     7    27    20    1
     8    20     1    1
     9     1     2    1
    10     2     3   ar
    11     3     4   ar
    12     4     5   ar
    13     5     9    1
    14     9    10    3
    15     5     6   ar
    16     6     7    1
    17     6     8   ar
    18    11     1    1
    19    11    12    1
    20    12    13    1
    21    13    14    1
    22    14    16    1
    23    16    17    1
    24    16    18    2
    25    16    19    2
    26    14    15    1
    27    27    22   ar
    28     8     2   ar
    29    15    11    1
@<TRIPOS>MOLECULE
*****
 27 29 0 0 0
SMALL
GASTEIGER

@<TRIPOS>ATOM
      1 N         139.2033  140.9983  164.6455 N.pl3   1  UNL1       -0.3037
      2 C         139.4855  140.9842  166.1187 C.ar    1  UNL1        0.0490
      3 C         139.0103  139.8385  166.9623 C.ar    1  UNL1        0.0153
      4 C         139.2924  139.8244  168.4355 C.ar    1  UNL1        0.0124
      5 C         140.0498  140.9559  169.0650 C.ar    1  UNL1        0.0791
      6 C         140.5250  142.1015  168.2213 C.ar    1  UNL1        0.0685
      7 CL        141.2823  143.2330  168.8508 Cl      1  UNL1       -0.0815
      8 C         140.2428  142.1156  166.7481 C.ar    1  UNL1        0.0266
      9 C         140.3320  140.9417  170.5381 C.1     1  UNL1        0.1013
     10 N         140.6141  140.9276  172.0113 N.1     1  UNL1       -0.1908
     11 C         139.8201  139.9617  163.7537 C.3     1  UNL1        0.0922
     12 C         139.0906  138.8526  163.0555 C.3     1  UNL1        0.0403
     13 C         140.0943  138.0577  162.2739 C.3     1  UNL1        0.0972
     14 N         141.4441  138.6756  162.4891 N.3     1  UNL1       -0.1576
     15 C         141.2746  139.8525  163.4038 C.3     1  UNL1        0.1151
     16 S         142.7364  138.2003  161.8942 S.O2    1  UNL1        0.0457
     17 C         144.0287  137.7249  161.2993 C.3     1  UNL1        0.1960
     18 O         141.9756  137.4446  160.8454 O.2     1  UNL1       -0.1572
     19 O         143.4972  138.9559  162.9431 O.2     1  UNL1       -0.1572
     20 C         138.3045  142.0490  164.0641 C.3     1  UNL1        0.1174
     21 C         138.8196  144.8360  165.0476 C.3     1  UNL1        0.0308
     22 C         139.1213  144.4756  163.6231 C.ar    1  UNL1       -0.0242
     23 C         139.6806  145.5087  162.6905 C.ar    1  UNL1       -0.0045
     24 C         139.9823  145.1483  161.2660 C.ar    1  UNL1       -0.0003
     25 C         139.7248  143.7548  160.7742 C.ar    1  UNL1       -0.0003
     26 C         139.1655  142.7217  161.7069 C.ar    1  UNL1       -0.0029
     27 C         138.8638  143.0822  163.1314 C.ar    1  UNL1       -0.0064
@<TRIPOS>BOND
     1    21    22    1
     2    22    23   ar
     3    23    24   ar
     4    24    25   ar
     5    25    26   ar
     6    26    27   ar
     7    27    20    1
     8    20     1    1
     9     1     2    1
    10     2     3   ar
    11     3     4   ar
    12     4     5   ar
    13     5     9    1
    14     9    10    3
    15     5     6   ar
    16     6     7    1
    17     6     8   ar
    18    11     1    1
    19    11    12    1
    20    12    13    1
    21    13    14    1
    22    14    16    1
    23    16    17    1
    24    16    18    2
    25    16    19    2
    26    14    15    1
    27    27    22   ar
    28     8     2   ar
    29    15    11    1
@<TRIPOS>MOLECULE
*****
 27 29 0 0 0
SMALL
GASTEIGER

@<TRIPOS>ATOM
      1 N         139.5527  141.4090  165.9043 N.pl3   1  UNL1       -0.3037
      2 C         139.5106  142.5293  164.9076 C.ar    1  UNL1        0.0490
      3 C         138.1978  143.1509  164.5330 C.ar    1  UNL1        0.0153
      4 C         138.1557  144.2712  163.5364 C.ar    1  UNL1        0.0124
      5 C         139.4264  144.7698  162.9144 C.ar    1  UNL1        0.0791
      6 C         140.7391  144.1481  163.2890 C.ar    1  UNL1        0.0685
      7 CL        142.0098  144.6467  162.6669 Cl      1  UNL1       -0.0815
      8 C         140.7812  143.0279  164.2856 C.ar    1  UNL1        0.0266
      9 C         139.3843  145.8900  161.9177 C.1     1  UNL1        0.1013
     10 N         139.3422  147.0102  160.9211 N.1     1  UNL1       -0.1908
     11 C         140.2945  141.5823  167.1965 C.3     1  UNL1        0.0922
     12 C         140.3454  142.8330  168.0230 C.3     1  UNL1        0.0403
     13 C         141.1980  142.5590  169.2264 C.3     1  UNL1        0.0972
     14 N         141.6739  141.1388  169.1436 N.3     1  UNL1       -0.1576
     15 C         141.1155  140.5352  167.8890 C.3     1  UNL1        0.1151
     16 S         142.5538  140.4443  170.1403 S.O2    1  UNL1        0.0457
     17 C         143.4336  139.7498  171.1370 C.3     1  UNL1        0.1960
     18 O         142.0893  141.3891  171.2087 O.2     1  UNL1       -0.1572
     19 O         143.0183  139.4995  169.0719 O.2     1  UNL1       -0.1572
     20 C         138.8531  140.1156  165.6087 C.3     1  UNL1        0.1174
     21 C         137.9390  139.9568  162.7558 C.3     1  UNL1        0.0308
     22 C         139.0206  139.0419  163.2488 C.ar    1  UNL1       -0.0242
     23 C         139.6452  138.0476  162.3154 C.ar    1  UNL1       -0.0045
     24 C         140.7268  137.1327  162.8085 C.ar    1  UNL1       -0.0003
     25 C         141.1838  137.2120  164.2349 C.ar    1  UNL1       -0.0003
     26 C         140.5592  138.2063  165.1683 C.ar    1  UNL1       -0.0029
     27 C         139.4777  139.1212  164.6753 C.ar    1  UNL1       -0.0064
@<TRIPOS>BOND
     1    21    22    1
     2    22    23   ar
     3    23    24   ar
     4    24    25   ar
     5    25    26   ar
     6    26    27   ar
     7    27    20    1
     8    20     1    1
     9     1     2    1
    10     2     3   ar
    11     3     4   ar
    12     4     5   ar
    13     5     9    1
    14     9    10    3
    15     5     6   ar
    16     6     7    1
    17     6     8   ar
    18    11     1    1
    19    11    12    1
    20    12    13    1
    21    13    14    1
    22    14    16    1
    23    16    17    1
    24    16    18    2
    25    16    19    2
    26    14    15    1
    27    27    22   ar
    28     8     2   ar
    29    15    11    1
