@<TRIPOS>MOLECULE
*****
 48 53 0 0 0
SMALL
GASTEIGER

@<TRIPOS>ATOM
      1 C         138.1663  141.9924  155.6068 C.3     1  UNL1        0.1355
      2 N         134.4524  140.8789  155.4249 N.am    1  UNL1       -0.2059
      3 C         135.7584  140.9702  156.1570 C.3     1  UNL1        0.1483
      4 C         136.7372  141.6831  155.2717 C.3     1  UNL1        0.2101
      5 O         136.0361  142.0324  153.9925 O.3     1  UNL1       -0.4345
      6 C         134.6240  141.5354  154.0872 C.2     1  UNL1        0.4098
      7 O         133.5687  141.6710  153.0298 O.2     1  UNL1       -0.2258
      8 C         130.6816  138.9704  156.9706 C.ar    1  UNL1        0.0223
      9 C         131.9634  138.1914  156.9522 C.ar    1  UNL1        0.0045
     10 C         133.2203  138.8275  156.4370 C.ar    1  UNL1        0.0348
     11 C         133.1955  140.2427  155.9402 C.ar    1  UNL1        0.1400
     12 N         131.9138  141.0218  155.9586 N.ar    1  UNL1       -0.2287
     13 C         130.6568  140.3856  156.4738 C.ar    1  UNL1        0.1004
     14 C         128.3642  137.8835  156.5256 C.ar    1  UNL1        0.1385
     15 C         127.1073  137.2473  157.0408 C.ar    1  UNL1        0.0392
     16 C         126.9108  137.0620  158.5162 C.ar    1  UNL1        0.0327
     17 C         127.9713  137.5129  159.4765 C.ar    1  UNL1        0.1403
     18 F         127.7748  137.3276  160.9520 F       1  UNL1       -0.2042
     19 C         129.2282  138.1490  158.9613 C.ar    1  UNL1        0.0327
     20 C         129.4247  138.3343  157.4858 C.ar    1  UNL1        0.0377
     21 O         128.5607  138.0688  155.0501 O.3     1  UNL1       -0.4792
     22 C         127.5159  138.9792  152.8525 C.3     1  UNL1        0.0472
     23 C         127.7935  139.1303  154.3188 C.3     1  UNL1        0.1661
     24 C         127.3041  140.3428  155.0538 C.3     1  UNL1        0.0472
     25 N         138.5962  142.0899  157.0406 N.am    1  UNL1       -0.2975
     26 C         138.9331  140.8463  157.8087 C.2     1  UNL1        0.2459
     27 O         138.8400  139.5053  157.1431 O.2     1  UNL1       -0.2701
     28 H         138.6573  142.9700  157.4775 H       1  UNL1        0.1499
     29 C         139.3630  140.9437  159.2424 C.ar    1  UNL1        0.0534
     30 C         140.4830  140.0844  159.7496 C.ar    1  UNL1        0.0047
     31 C         140.9130  140.1818  161.1834 C.ar    1  UNL1        0.0048
     32 C         140.2230  141.1386  162.1100 C.ar    1  UNL1        0.0536
     33 C         139.1030  141.9979  161.6027 C.ar    1  UNL1        0.0048
     34 C         138.6730  141.9005  160.1690 C.ar    1  UNL1        0.0047
     35 C         140.6529  141.2360  163.5437 C.ar    1  UNL1        0.2296
     36 N         141.8886  141.9198  164.0491 N.ar    1  UNL1       -0.2082
     37 C         141.9220  141.7732  165.5415 C.ar    1  UNL1        0.1192
     38 C         142.9019  142.2448  166.5747 C.ar    1  UNL1        0.0326
     39 C         142.6666  141.9419  168.0249 C.ar    1  UNL1        0.0698
     40 C         141.4516  141.1675  168.4418 C.ar    1  UNL1        0.0091
     41 C         140.4717  140.6959  167.4087 C.ar    1  UNL1        0.0143
     42 C         140.7069  140.9987  165.9585 C.ar    1  UNL1        0.1607
     43 O         139.9226  140.6668  164.7238 O.2     1  UNL1       -0.4349
     44 C         139.2567  139.9215  167.8257 C.3     1  UNL1        0.0254
     45 C         138.7918  139.9658  169.2511 C.3     1  UNL1        0.0048
     46 C         138.5065  139.1028  166.8172 C.3     1  UNL1        0.0048
     47 C         143.6465  142.4135  169.0581 C.1     1  UNL1        0.1005
     48 N         144.6264  142.8851  170.0913 N.1     1  UNL1       -0.1908
@<TRIPOS>BOND
     1    22    23    1
     2    23    24    1
     3    23    21    1
     4    21    14    1
     5    14    15   ar
     6    15    16   ar
     7    16    17   ar
     8    17    18    1
     9    17    19   ar
    10    19    20   ar
    11    20     8    1
    12     8     9   ar
    13     9    10   ar
    14    10    11   ar
    15    11     2    1
    16     2     3    1
    17     3     4    1
    18     4     1    1
    19     1    25    1
    20    25    26   am
    21    26    27    2
    22    26    29    1
    23    29    30   ar
    24    30    31   ar
    25    31    32   ar
    26    32    35    1
    27    35    36   ar
    28    36    37   ar
    29    37    38   ar
    30    38    39   ar
    31    39    47    1
    32    47    48    3
    33    39    40   ar
    34    40    41   ar
    35    41    44    1
    36    44    45    1
    37    44    46    1
    38    41    42   ar
    39    42    43   ar
    40    32    33   ar
    41    33    34   ar
    42     4     5    1
    43     5     6    1
    44     6     7    2
    45    11    12   ar
    46    12    13   ar
    47    20    14   ar
    48    13     8   ar
    49     6     2   am
    50    34    29   ar
    51    43    35   ar
    52    42    37   ar
    53    25    28    1
@<TRIPOS>MOLECULE
*****
 48 53 0 0 0
SMALL
GASTEIGER

@<TRIPOS>ATOM
      1 C         141.5386  138.8606  155.4933 C.3     1  UNL1        0.1355
      2 N         142.3471  135.0731  155.2350 N.am    1  UNL1       -0.2059
      3 C         142.2048  136.3304  156.0405 C.3     1  UNL1        0.1483
      4 C         141.7933  137.4328  155.1103 C.3     1  UNL1        0.2101
      5 O         141.6812  136.8569  153.7298 O.3     1  UNL1       -0.4345
      6 C         142.0235  135.3984  153.8069 C.2     1  UNL1        0.4098
      7 O         142.0394  134.4346  152.6576 O.2     1  UNL1       -0.2258
      8 C         143.5358  131.0342  156.8236 C.ar    1  UNL1        0.0223
      9 C         142.2606  131.1899  156.0493 C.ar    1  UNL1        0.0045
     10 C         141.8643  132.5362  155.5197 C.ar    1  UNL1        0.0348
     11 C         142.7433  133.7268  155.7645 C.ar    1  UNL1        0.1400
     12 N         144.0186  133.5711  156.5388 N.ar    1  UNL1       -0.2287
     13 C         144.4148  132.2247  157.0684 C.ar    1  UNL1        0.1004
     14 C         144.7606  128.7645  156.5101 C.ar    1  UNL1        0.1385
     15 C         145.1568  127.4182  157.0396 C.ar    1  UNL1        0.0392
     16 C         144.7246  126.9953  158.4123 C.ar    1  UNL1        0.0327
     17 C         143.8961  127.9187  159.2554 C.ar    1  UNL1        0.1403
     18 F         143.4639  127.4957  160.6282 F       1  UNL1       -0.2042
     19 C         143.4999  129.2650  158.7259 C.ar    1  UNL1        0.0327
     20 C         143.9321  129.6879  157.3532 C.ar    1  UNL1        0.0377
     21 O         145.1928  129.1874  155.1373 O.3     1  UNL1       -0.4792
     22 C         144.9582  128.9705  152.5589 C.3     1  UNL1        0.0472
     23 C         144.4050  128.7545  153.9364 C.3     1  UNL1        0.1661
     24 C         143.0642  128.1057  154.1129 C.3     1  UNL1        0.0472
     25 N         141.6296  139.2792  156.9309 N.am    1  UNL1       -0.2975
     26 C         140.4822  139.0200  157.8615 C.2     1  UNL1        0.2459
     27 O         139.2437  138.3423  157.3547 O.2     1  UNL1       -0.2701
     28 H         142.4425  139.7240  157.2636 H       1  UNL1        0.1499
     29 C         140.5732  139.4386  159.2991 C.ar    1  UNL1        0.0534
     30 C         139.9077  138.6170  160.3630 C.ar    1  UNL1        0.0047
     31 C         139.9987  139.0355  161.8006 C.ar    1  UNL1        0.0048
     32 C         140.7553  140.2756  162.1742 C.ar    1  UNL1        0.0536
     33 C         141.4209  141.0972  161.1103 C.ar    1  UNL1        0.0048
     34 C         141.3299  140.6787  159.6727 C.ar    1  UNL1        0.0047
     35 C         140.8464  140.6941  163.6118 C.ar    1  UNL1        0.2296
     36 N         140.2368  141.9265  164.2116 N.ar    1  UNL1       -0.2082
     37 C         140.5767  141.9477  165.6724 C.ar    1  UNL1        0.1192
     38 C         140.2457  142.9198  166.7658 C.ar    1  UNL1        0.0326
     39 C         140.7345  142.6726  168.1623 C.ar    1  UNL1        0.0698
     40 C         141.5541  141.4535  168.4653 C.ar    1  UNL1        0.0091
     41 C         141.8850  140.4814  167.3719 C.ar    1  UNL1        0.0143
     42 C         141.3964  140.7286  165.9754 C.ar    1  UNL1        0.1607
     43 O         141.5630  139.9538  164.7019 O.2     1  UNL1       -0.4349
     44 C         142.7047  139.2623  167.6749 C.3     1  UNL1        0.0254
     45 C         143.4120  138.5396  166.5670 C.3     1  UNL1        0.0048
     46 C         142.8170  138.7657  169.0860 C.3     1  UNL1        0.0048
     47 C         140.4035  143.6447  169.2558 C.1     1  UNL1        0.1005
     48 N         140.0726  144.6167  170.3492 N.1     1  UNL1       -0.1908
@<TRIPOS>BOND
     1    22    23    1
     2    23    24    1
     3    23    21    1
     4    21    14    1
     5    14    15   ar
     6    15    16   ar
     7    16    17   ar
     8    17    18    1
     9    17    19   ar
    10    19    20   ar
    11    20     8    1
    12     8     9   ar
    13     9    10   ar
    14    10    11   ar
    15    11     2    1
    16     2     3    1
    17     3     4    1
    18     4     1    1
    19     1    25    1
    20    25    26   am
    21    26    27    2
    22    26    29    1
    23    29    30   ar
    24    30    31   ar
    25    31    32   ar
    26    32    35    1
    27    35    36   ar
    28    36    37   ar
    29    37    38   ar
    30    38    39   ar
    31    39    47    1
    32    47    48    3
    33    39    40   ar
    34    40    41   ar
    35    41    44    1
    36    44    45    1
    37    44    46    1
    38    41    42   ar
    39    42    43   ar
    40    32    33   ar
    41    33    34   ar
    42     4     5    1
    43     5     6    1
    44     6     7    2
    45    11    12   ar
    46    12    13   ar
    47    20    14   ar
    48    13     8   ar
    49     6     2   am
    50    34    29   ar
    51    43    35   ar
    52    42    37   ar
    53    25    28    1
@<TRIPOS>MOLECULE
*****
 48 53 0 0 0
SMALL
GASTEIGER

@<TRIPOS>ATOM
      1 C         143.4386  142.0461  157.6525 C.3     1  UNL1        0.1355
      2 N         143.1674  138.7511  155.6190 N.am    1  UNL1       -0.2059
      3 C         142.9299  139.5406  156.8721 C.3     1  UNL1        0.1483
      4 C         143.4663  140.9247  156.6565 C.3     1  UNL1        0.2101
      5 O         144.0352  140.9906  155.2702 O.3     1  UNL1       -0.4345
      6 C         143.8505  139.6472  154.6290 C.2     1  UNL1        0.4098
      7 O         144.2744  139.2668  153.2413 O.2     1  UNL1       -0.2258
      8 C         142.0300  134.4492  154.9477 C.ar    1  UNL1        0.0223
      9 C         143.4755  134.8496  154.9602 C.ar    1  UNL1        0.0045
     10 C         143.8546  136.2836  155.1840 C.ar    1  UNL1        0.0348
     11 C         142.7882  137.3171  155.3953 C.ar    1  UNL1        0.1400
     12 N         141.3427  136.9167  155.3828 N.ar    1  UNL1       -0.2287
     13 C         140.9636  135.4827  155.1590 C.ar    1  UNL1        0.1004
     14 C         141.9675  131.9843  155.7664 C.ar    1  UNL1        0.1385
     15 C         141.5884  130.5504  155.5427 C.ar    1  UNL1        0.0392
     16 C         140.8926  130.1474  154.2764 C.ar    1  UNL1        0.0327
     17 C         140.5759  131.1784  153.2339 C.ar    1  UNL1        0.1403
     18 F         139.8801  130.7754  151.9676 F       1  UNL1       -0.2042
     19 C         140.9551  132.6123  153.4577 C.ar    1  UNL1        0.0327
     20 C         141.6509  133.0153  154.7240 C.ar    1  UNL1        0.0377
     21 O         142.6633  132.3873  157.0327 O.3     1  UNL1       -0.4792
     22 C         144.9030  133.1276  158.1220 C.3     1  UNL1        0.0472
     23 C         144.1561  132.2801  157.1350 C.3     1  UNL1        0.1661
     24 C         144.9018  131.3255  156.2505 C.3     1  UNL1        0.0472
     25 N         142.7860  141.8468  158.9883 N.am    1  UNL1       -0.2975
     26 C         143.5874  142.0084  160.2460 C.2     1  UNL1        0.2459
     27 O         145.0412  142.3693  160.1678 O.2     1  UNL1       -0.2701
     28 H         141.8318  141.6099  159.0396 H       1  UNL1        0.1499
     29 C         142.9348  141.8091  161.5818 C.ar    1  UNL1        0.0534
     30 C         142.5368  142.9970  162.4068 C.ar    1  UNL1        0.0047
     31 C         141.8843  142.7978  163.7427 C.ar    1  UNL1        0.0048
     32 C         141.6296  141.4106  164.2535 C.ar    1  UNL1        0.0536
     33 C         142.0275  140.2228  163.4285 C.ar    1  UNL1        0.0048
     34 C         142.6801  140.4220  162.0926 C.ar    1  UNL1        0.0047
     35 C         140.9770  141.2113  165.5893 C.ar    1  UNL1        0.2296
     36 N         139.9490  140.1709  165.9219 N.ar    1  UNL1       -0.2082
     37 C         139.5746  140.3341  167.3652 C.ar    1  UNL1        0.1192
     38 C         138.6112  139.5908  168.2424 C.ar    1  UNL1        0.0326
     39 C         138.4444  139.9890  169.6790 C.ar    1  UNL1        0.0698
     40 C         139.2409  141.1302  170.2384 C.ar    1  UNL1        0.0091
     41 C         140.2043  141.8734  169.3612 C.ar    1  UNL1        0.0143
     42 C         140.3712  141.4753  167.9247 C.ar    1  UNL1        0.1607
     43 O         141.2380  142.0175  166.8271 O.2     1  UNL1       -0.4349
     44 C         141.0009  143.0147  169.9206 C.3     1  UNL1        0.0254
     45 C         140.3864  144.3792  170.0230 C.3     1  UNL1        0.0048
     46 C         142.4121  142.7914  170.3777 C.3     1  UNL1        0.0048
     47 C         137.4809  139.2457  170.5562 C.1     1  UNL1        0.1005
     48 N         136.5174  138.5025  171.4334 N.1     1  UNL1       -0.1908
@<TRIPOS>BOND
     1    22    23    1
     2    23    24    1
     3    23    21    1
     4    21    14    1
     5    14    15   ar
     6    15    16   ar
     7    16    17   ar
     8    17    18    1
     9    17    19   ar
    10    19    20   ar
    11    20     8    1
    12     8     9   ar
    13     9    10   ar
    14    10    11   ar
    15    11     2    1
    16     2     3    1
    17     3     4    1
    18     4     1    1
    19     1    25    1
    20    25    26   am
    21    26    27    2
    22    26    29    1
    23    29    30   ar
    24    30    31   ar
    25    31    32   ar
    26    32    35    1
    27    35    36   ar
    28    36    37   ar
    29    37    38   ar
    30    38    39   ar
    31    39    47    1
    32    47    48    3
    33    39    40   ar
    34    40    41   ar
    35    41    44    1
    36    44    45    1
    37    44    46    1
    38    41    42   ar
    39    42    43   ar
    40    32    33   ar
    41    33    34   ar
    42     4     5    1
    43     5     6    1
    44     6     7    2
    45    11    12   ar
    46    12    13   ar
    47    20    14   ar
    48    13     8   ar
    49     6     2   am
    50    34    29   ar
    51    43    35   ar
    52    42    37   ar
    53    25    28    1
@<TRIPOS>MOLECULE
*****
 48 53 0 0 0
SMALL
GASTEIGER

@<TRIPOS>ATOM
      1 C         142.1875  138.7471  157.1133 C.3     1  UNL1        0.1355
      2 N         142.1611  135.1331  155.6978 N.am    1  UNL1       -0.2059
      3 C         142.6264  136.1421  156.7054 C.3     1  UNL1        0.1483
      4 C         141.9963  137.4604  156.3663 C.3     1  UNL1        0.2101
      5 O         141.1415  137.2662  155.1491 O.3     1  UNL1       -0.4345
      6 C         141.2433  135.8278  154.7359 C.2     1  UNL1        0.4098
      7 O         140.5493  135.1952  153.5663 O.2     1  UNL1       -0.2258
      8 C         143.3155  130.7853  155.5808 C.ar    1  UNL1        0.0223
      9 C         143.2492  131.5781  154.3092 C.ar    1  UNL1        0.0045
     10 C         142.8644  133.0274  154.3481 C.ar    1  UNL1        0.0348
     11 C         142.5459  133.6839  155.6588 C.ar    1  UNL1        0.1400
     12 N         142.6122  132.8910  156.9304 N.ar    1  UNL1       -0.2287
     13 C         142.9970  131.4417  156.8914 C.ar    1  UNL1        0.1004
     14 C         142.6430  128.2765  155.6379 C.ar    1  UNL1        0.1385
     15 C         143.0278  126.8272  155.5989 C.ar    1  UNL1        0.0392
     16 C         144.4700  126.4375  155.4639 C.ar    1  UNL1        0.0327
     17 C         145.5274  127.4971  155.3679 C.ar    1  UNL1        0.1403
     18 F         146.9696  127.1074  155.2329 F       1  UNL1       -0.2042
     19 C         145.1425  128.9463  155.4068 C.ar    1  UNL1        0.0327
     20 C         143.7003  129.3360  155.5418 C.ar    1  UNL1        0.0377
     21 O         141.2008  128.6662  155.7729 O.3     1  UNL1       -0.4792
     22 C         139.6058  130.4248  154.7177 C.3     1  UNL1        0.0472
     23 C         140.4520  129.1934  154.5848 C.3     1  UNL1        0.1661
     24 C         140.5494  128.4893  153.2639 C.3     1  UNL1        0.0472
     25 N         141.6490  138.8931  158.5057 N.am    1  UNL1       -0.2975
     26 C         142.5751  139.2305  159.6364 C.2     1  UNL1        0.2459
     27 O         144.0396  139.4220  159.3747 O.2     1  UNL1       -0.2701
     28 H         140.6877  138.7675  158.6775 H       1  UNL1        0.1499
     29 C         142.0366  139.3765  161.0288 C.ar    1  UNL1        0.0534
     30 C         141.3297  138.2271  161.6838 C.ar    1  UNL1        0.0047
     31 C         140.7911  138.3730  163.0762 C.ar    1  UNL1        0.0048
     32 C         140.9596  139.6684  163.8136 C.ar    1  UNL1        0.0536
     33 C         141.6665  140.8178  163.1585 C.ar    1  UNL1        0.0048
     34 C         142.2050  140.6719  161.7661 C.ar    1  UNL1        0.0047
     35 C         140.4211  139.8143  165.2059 C.ar    1  UNL1        0.2296
     36 N         139.2495  139.0744  165.7802 N.ar    1  UNL1       -0.2082
     37 C         139.0640  139.5287  167.1977 C.ar    1  UNL1        0.1192
     38 C         138.0692  139.1447  168.2526 C.ar    1  UNL1        0.0326
     39 C         138.1314  139.7816  169.6094 C.ar    1  UNL1        0.0698
     40 C         139.1883  140.8022  169.9111 C.ar    1  UNL1        0.0091
     41 C         140.1831  141.1861  168.8562 C.ar    1  UNL1        0.0143
     42 C         140.1210  140.5494  167.4995 C.ar    1  UNL1        0.1607
     43 O         140.9597  140.7259  166.2685 O.2     1  UNL1       -0.4349
     44 C         141.2400  142.2068  169.1579 C.3     1  UNL1        0.0254
     45 C         140.8487  143.5694  169.6481 C.3     1  UNL1        0.0048
     46 C         142.6884  141.8650  168.9694 C.3     1  UNL1        0.0048
     47 C         137.1365  139.3976  170.6644 C.1     1  UNL1        0.1005
     48 N         136.1417  139.0137  171.7194 N.1     1  UNL1       -0.1908
@<TRIPOS>BOND
     1    22    23    1
     2    23    24    1
     3    23    21    1
     4    21    14    1
     5    14    15   ar
     6    15    16   ar
     7    16    17   ar
     8    17    18    1
     9    17    19   ar
    10    19    20   ar
    11    20     8    1
    12     8     9   ar
    13     9    10   ar
    14    10    11   ar
    15    11     2    1
    16     2     3    1
    17     3     4    1
    18     4     1    1
    19     1    25    1
    20    25    26   am
    21    26    27    2
    22    26    29    1
    23    29    30   ar
    24    30    31   ar
    25    31    32   ar
    26    32    35    1
    27    35    36   ar
    28    36    37   ar
    29    37    38   ar
    30    38    39   ar
    31    39    47    1
    32    47    48    3
    33    39    40   ar
    34    40    41   ar
    35    41    44    1
    36    44    45    1
    37    44    46    1
    38    41    42   ar
    39    42    43   ar
    40    32    33   ar
    41    33    34   ar
    42     4     5    1
    43     5     6    1
    44     6     7    2
    45    11    12   ar
    46    12    13   ar
    47    20    14   ar
    48    13     8   ar
    49     6     2   am
    50    34    29   ar
    51    43    35   ar
    52    42    37   ar
    53    25    28    1
@<TRIPOS>MOLECULE
*****
 48 53 0 0 0
SMALL
GASTEIGER

@<TRIPOS>ATOM
      1 C         141.6828  137.7435  154.7180 C.3     1  UNL1        0.1355
      2 N         142.5801  133.9695  154.8511 N.am    1  UNL1       -0.2059
      3 C         142.4756  135.3152  155.5055 C.3     1  UNL1        0.1483
      4 C         141.9443  136.2839  154.4910 C.3     1  UNL1        0.2101
      5 O         141.7203  135.5370  153.2096 O.3     1  UNL1       -0.4345
      6 C         142.1133  134.1065  153.4322 C.2     1  UNL1        0.4098
      7 O         142.0505  133.0064  152.4146 O.2     1  UNL1       -0.2258
      8 C         144.0379  130.1856  156.8023 C.ar    1  UNL1        0.0223
      9 C         144.9721  131.3456  156.6241 C.ar    1  UNL1        0.0045
     10 C         144.4862  132.6069  155.9737 C.ar    1  UNL1        0.0348
     11 C         143.0660  132.7083  155.5015 C.ar    1  UNL1        0.1400
     12 N         142.1318  131.5483  155.6796 N.ar    1  UNL1       -0.2287
     13 C         142.6178  130.2869  156.3301 C.ar    1  UNL1        0.1004
     14 C         144.6297  127.6604  156.6520 C.ar    1  UNL1        0.1385
     15 C         145.1156  126.3991  157.3024 C.ar    1  UNL1        0.0392
     16 C         145.4956  126.4017  158.7534 C.ar    1  UNL1        0.0327
     17 C         145.3898  127.6657  159.5541 C.ar    1  UNL1        0.1403
     18 F         145.7698  127.6684  161.0051 F       1  UNL1       -0.2042
     19 C         144.9039  128.9270  158.9037 C.ar    1  UNL1        0.0327
     20 C         144.5238  128.9243  157.4526 C.ar    1  UNL1        0.0377
     21 O         144.2496  127.6577  155.2010 O.3     1  UNL1       -0.4792
     22 C         146.5294  127.3304  153.9985 C.3     1  UNL1        0.0472
     23 C         145.2449  128.0873  154.1642 C.3     1  UNL1        0.1661
     24 C         144.9558  129.2737  153.2931 C.3     1  UNL1        0.0472
     25 N         141.5081  138.2660  156.1132 N.am    1  UNL1       -0.2975
     26 C         142.7100  138.6293  156.9338 C.2     1  UNL1        0.2459
     27 O         144.0864  138.4701  156.3594 O.2     1  UNL1       -0.2701
     28 H         140.6047  138.3705  156.4902 H       1  UNL1        0.1499
     29 C         142.5353  139.1518  158.3290 C.ar    1  UNL1        0.0534
     30 C         143.6460  139.9138  158.9890 C.ar    1  UNL1        0.0047
     31 C         143.4715  140.4363  160.3842 C.ar    1  UNL1        0.0048
     32 C         142.1861  140.1969  161.1193 C.ar    1  UNL1        0.0536
     33 C         141.0753  139.4350  160.4593 C.ar    1  UNL1        0.0048
     34 C         141.2499  138.9124  159.0641 C.ar    1  UNL1        0.0047
     35 C         142.0114  140.7194  162.5145 C.ar    1  UNL1        0.2296
     36 N         142.9571  140.5088  163.6597 N.ar    1  UNL1       -0.2082
     37 C         142.3905  141.2035  164.8623 C.ar    1  UNL1        0.1192
     38 C         142.8872  141.3361  166.2715 C.ar    1  UNL1        0.0326
     39 C         142.0879  142.1086  167.2788 C.ar    1  UNL1        0.0698
     40 C         140.7922  142.7484  166.8769 C.ar    1  UNL1        0.0091
     41 C         140.2956  142.6159  165.4678 C.ar    1  UNL1        0.0143
     42 C         141.0947  141.8434  164.4605 C.ar    1  UNL1        0.1607
     43 O         140.8604  141.5442  163.0094 O.2     1  UNL1       -0.4349
     44 C         138.9998  143.2558  165.0659 C.3     1  UNL1        0.0254
     45 C         138.7948  144.7275  165.2707 C.3     1  UNL1        0.0048
     46 C         137.9089  142.4238  164.4592 C.3     1  UNL1        0.0048
     47 C         142.5846  142.2411  168.6881 C.1     1  UNL1        0.1005
     48 N         143.0812  142.3737  170.0972 N.1     1  UNL1       -0.1908
@<TRIPOS>BOND
     1    22    23    1
     2    23    24    1
     3    23    21    1
     4    21    14    1
     5    14    15   ar
     6    15    16   ar
     7    16    17   ar
     8    17    18    1
     9    17    19   ar
    10    19    20   ar
    11    20     8    1
    12     8     9   ar
    13     9    10   ar
    14    10    11   ar
    15    11     2    1
    16     2     3    1
    17     3     4    1
    18     4     1    1
    19     1    25    1
    20    25    26   am
    21    26    27    2
    22    26    29    1
    23    29    30   ar
    24    30    31   ar
    25    31    32   ar
    26    32    35    1
    27    35    36   ar
    28    36    37   ar
    29    37    38   ar
    30    38    39   ar
    31    39    47    1
    32    47    48    3
    33    39    40   ar
    34    40    41   ar
    35    41    44    1
    36    44    45    1
    37    44    46    1
    38    41    42   ar
    39    42    43   ar
    40    32    33   ar
    41    33    34   ar
    42     4     5    1
    43     5     6    1
    44     6     7    2
    45    11    12   ar
    46    12    13   ar
    47    20    14   ar
    48    13     8   ar
    49     6     2   am
    50    34    29   ar
    51    43    35   ar
    52    42    37   ar
    53    25    28    1
@<TRIPOS>MOLECULE
*****
 48 53 0 0 0
SMALL
GASTEIGER

@<TRIPOS>ATOM
      1 C         141.7525  139.8232  157.5452 C.3     1  UNL1        0.1355
      2 N         142.5204  139.1961  161.2979 N.am    1  UNL1       -0.2059
      3 C         141.6711  139.7961  160.2169 C.3     1  UNL1        0.1483
      4 C         142.2779  139.4313  158.8946 C.3     1  UNL1        0.2101
      5 O         143.5022  138.6059  159.1583 O.3     1  UNL1       -0.4345
      6 C         143.6522  138.4605  160.6437 C.2     1  UNL1        0.4098
      7 O         144.7424  137.7111  161.3507 O.2     1  UNL1       -0.2258
      8 C         141.7999  139.5422  165.7264 C.ar    1  UNL1        0.0223
      9 C         142.0985  140.7693  164.9170 C.ar    1  UNL1        0.0045
     10 C         142.3387  140.6539  163.4408 C.ar    1  UNL1        0.0348
     11 C         142.2803  139.3115  162.7740 C.ar    1  UNL1        0.1400
     12 N         141.9816  138.0844  163.5835 N.ar    1  UNL1       -0.2287
     13 C         141.7414  138.1998  165.0597 C.ar    1  UNL1        0.1004
     14 C         140.2571  140.2011  167.7102 C.ar    1  UNL1        0.1385
     15 C         140.0170  140.3165  169.1863 C.ar    1  UNL1        0.0392
     16 C         141.0793  139.8883  170.1548 C.ar    1  UNL1        0.0327
     17 C         142.3819  139.3447  169.6471 C.ar    1  UNL1        0.1403
     18 F         143.4443  138.9165  170.6156 F       1  UNL1       -0.2042
     19 C         142.6221  139.2293  168.1710 C.ar    1  UNL1        0.0327
     20 C         141.5597  139.6576  167.2025 C.ar    1  UNL1        0.0377
     21 O         139.1947  140.6293  166.7417 O.3     1  UNL1       -0.4792
     22 C         137.7263  138.4860  166.7531 C.3     1  UNL1        0.0472
     23 C         138.3952  139.5984  166.0013 C.3     1  UNL1        0.1661
     24 C         138.2646  139.6799  164.5093 C.3     1  UNL1        0.0472
     25 N         140.2893  140.0970  157.3607 N.am    1  UNL1       -0.2975
     26 C         139.5799  139.5912  156.1397 C.2     1  UNL1        0.2459
     27 O         140.3336  138.8116  155.1033 O.2     1  UNL1       -0.2701
     28 H         139.7946  140.6087  158.0409 H       1  UNL1        0.1499
     29 C         138.1167  139.8649  155.9552 C.ar    1  UNL1        0.0534
     30 C         137.3746  139.2380  154.8123 C.ar    1  UNL1        0.0047
     31 C         135.9114  139.5117  154.6276 C.ar    1  UNL1        0.0048
     32 C         135.1902  140.4125  155.5860 C.ar    1  UNL1        0.0536
     33 C         135.9322  141.0394  156.7290 C.ar    1  UNL1        0.0048
     34 C         137.3955  140.7657  156.9136 C.ar    1  UNL1        0.0047
     35 C         133.7270  140.6863  155.4015 C.ar    1  UNL1        0.2296
     36 N         133.1286  141.6726  154.4429 N.ar    1  UNL1       -0.2082
     37 C         131.6371  141.6177  154.5921 C.ar    1  UNL1        0.1192
     38 C         130.5316  142.3649  153.9069 C.ar    1  UNL1        0.0326
     39 C         129.1027  142.0918  154.2726 C.ar    1  UNL1        0.0698
     40 C         128.7793  141.0715  155.3234 C.ar    1  UNL1        0.0091
     41 C         129.8847  140.3243  156.0086 C.ar    1  UNL1        0.0143
     42 C         131.3136  140.5973  155.6430 C.ar    1  UNL1        0.1607
     43 O         132.6053  140.0217  156.1432 O.2     1  UNL1       -0.4349
     44 C         129.5613  139.3039  157.0595 C.3     1  UNL1        0.0254
     45 C         129.8790  137.8572  156.8231 C.3     1  UNL1        0.0048
     46 C         128.9201  139.7304  158.3468 C.3     1  UNL1        0.0048
     47 C         127.9972  142.8391  153.5873 C.1     1  UNL1        0.1005
     48 N         126.8917  143.5864  152.9021 N.1     1  UNL1       -0.1908
@<TRIPOS>BOND
     1    22    23    1
     2    23    24    1
     3    23    21    1
     4    21    14    1
     5    14    15   ar
     6    15    16   ar
     7    16    17   ar
     8    17    18    1
     9    17    19   ar
    10    19    20   ar
    11    20     8    1
    12     8     9   ar
    13     9    10   ar
    14    10    11   ar
    15    11     2    1
    16     2     3    1
    17     3     4    1
    18     4     1    1
    19     1    25    1
    20    25    26   am
    21    26    27    2
    22    26    29    1
    23    29    30   ar
    24    30    31   ar
    25    31    32   ar
    26    32    35    1
    27    35    36   ar
    28    36    37   ar
    29    37    38   ar
    30    38    39   ar
    31    39    47    1
    32    47    48    3
    33    39    40   ar
    34    40    41   ar
    35    41    44    1
    36    44    45    1
    37    44    46    1
    38    41    42   ar
    39    42    43   ar
    40    32    33   ar
    41    33    34   ar
    42     4     5    1
    43     5     6    1
    44     6     7    2
    45    11    12   ar
    46    12    13   ar
    47    20    14   ar
    48    13     8   ar
    49     6     2   am
    50    34    29   ar
    51    43    35   ar
    52    42    37   ar
    53    25    28    1
@<TRIPOS>MOLECULE
*****
 48 53 0 0 0
SMALL
GASTEIGER

@<TRIPOS>ATOM
      1 C         142.8047  142.6858  158.3230 C.3     1  UNL1        0.1355
      2 N         143.3789  141.8507  162.0697 N.am    1  UNL1       -0.2059
      3 C         142.4635  142.0757  160.9030 C.3     1  UNL1        0.1483
      4 C         143.3088  142.3917  159.7049 C.3     1  UNL1        0.2101
      5 O         144.7466  142.3618  160.1311 O.3     1  UNL1       -0.4345
      6 C         144.7899  142.0274  161.5927 C.2     1  UNL1        0.4098
      7 O         146.0271  141.8934  162.4302 O.2     1  UNL1       -0.2258
      8 C         142.1140  140.8250  166.2648 C.ar    1  UNL1        0.0223
      9 C         142.6186  139.7492  165.3494 C.ar    1  UNL1        0.0045
     10 C         143.0403  140.0910  163.9510 C.ar    1  UNL1        0.0348
     11 C         142.9573  141.5088  163.4681 C.ar    1  UNL1        0.1400
     12 N         142.4527  142.5846  164.3835 N.ar    1  UNL1       -0.2287
     13 C         142.0311  142.2427  165.7819 C.ar    1  UNL1        0.1004
     14 C         140.2357  140.3575  167.9977 C.ar    1  UNL1        0.1385
     15 C         139.8141  140.0156  169.3960 C.ar    1  UNL1        0.0392
     16 C         140.8492  139.7994  170.4598 C.ar    1  UNL1        0.0327
     17 C         142.3060  139.9250  170.1253 C.ar    1  UNL1        0.1403
     18 F         143.3412  139.7088  171.1890 F       1  UNL1       -0.2042
     19 C         142.7276  140.2669  168.7269 C.ar    1  UNL1        0.0327
     20 C         141.6924  140.4831  167.6631 C.ar    1  UNL1        0.0377
     21 O         139.2005  140.5737  166.9339 O.3     1  UNL1       -0.4792
     22 C         137.6828  138.4650  166.9481 C.3     1  UNL1        0.0472
     23 C         138.6032  139.3982  166.2187 C.3     1  UNL1        0.1661
     24 C         138.9263  139.1559  164.7741 C.3     1  UNL1        0.0472
     25 N         141.3365  142.6036  158.0269 N.am    1  UNL1       -0.2975
     26 C         140.7858  141.4208  157.2869 C.2     1  UNL1        0.2459
     27 O         141.7032  140.3202  156.8429 O.2     1  UNL1       -0.2701
     28 H         140.7343  143.3259  158.3183 H       1  UNL1        0.1499
     29 C         139.3176  141.3386  156.9908 C.ar    1  UNL1        0.0534
     30 C         138.7849  141.8578  155.6883 C.ar    1  UNL1        0.0047
     31 C         137.3167  141.7756  155.3921 C.ar    1  UNL1        0.0048
     32 C         136.3812  141.1741  156.3986 C.ar    1  UNL1        0.0536
     33 C         136.9138  140.6549  157.7012 C.ar    1  UNL1        0.0048
     34 C         138.3821  140.7371  157.9973 C.ar    1  UNL1        0.0047
     35 C         134.9130  141.0919  156.1026 C.ar    1  UNL1        0.2296
     36 N         134.1975  141.7960  154.9879 N.ar    1  UNL1       -0.2082
     37 C         132.7448  141.4304  155.0657 C.ar    1  UNL1        0.1192
     38 C         131.5646  141.8242  154.2280 C.ar    1  UNL1        0.0326
     39 C         130.2018  141.2879  154.5530 C.ar    1  UNL1        0.0698
     40 C         130.0195  140.3579  155.7156 C.ar    1  UNL1        0.0091
     41 C         131.1998  139.9641  156.5534 C.ar    1  UNL1        0.0143
     42 C         132.5625  140.5003  156.2284 C.ar    1  UNL1        0.1607
     43 O         133.9025  140.2912  156.8692 O.2     1  UNL1       -0.4349
     44 C         131.0175  139.0341  157.7160 C.3     1  UNL1        0.0254
     45 C         129.6720  138.9002  158.3655 C.3     1  UNL1        0.0048
     46 C         132.1806  138.2379  158.2292 C.3     1  UNL1        0.0048
     47 C         129.0215  141.6817  153.7153 C.1     1  UNL1        0.1005
     48 N         127.8412  142.0755  152.8775 N.1     1  UNL1       -0.1908
@<TRIPOS>BOND
     1    22    23    1
     2    23    24    1
     3    23    21    1
     4    21    14    1
     5    14    15   ar
     6    15    16   ar
     7    16    17   ar
     8    17    18    1
     9    17    19   ar
    10    19    20   ar
    11    20     8    1
    12     8     9   ar
    13     9    10   ar
    14    10    11   ar
    15    11     2    1
    16     2     3    1
    17     3     4    1
    18     4     1    1
    19     1    25    1
    20    25    26   am
    21    26    27    2
    22    26    29    1
    23    29    30   ar
    24    30    31   ar
    25    31    32   ar
    26    32    35    1
    27    35    36   ar
    28    36    37   ar
    29    37    38   ar
    30    38    39   ar
    31    39    47    1
    32    47    48    3
    33    39    40   ar
    34    40    41   ar
    35    41    44    1
    36    44    45    1
    37    44    46    1
    38    41    42   ar
    39    42    43   ar
    40    32    33   ar
    41    33    34   ar
    42     4     5    1
    43     5     6    1
    44     6     7    2
    45    11    12   ar
    46    12    13   ar
    47    20    14   ar
    48    13     8   ar
    49     6     2   am
    50    34    29   ar
    51    43    35   ar
    52    42    37   ar
    53    25    28    1
@<TRIPOS>MOLECULE
*****
 48 53 0 0 0
SMALL
GASTEIGER

@<TRIPOS>ATOM
      1 C         141.2817  138.1278  156.5991 C.3     1  UNL1        0.1355
      2 N         142.0677  134.4661  155.5795 N.am    1  UNL1       -0.2059
      3 C         142.2294  135.6299  156.5119 C.3     1  UNL1        0.1483
      4 C         141.4103  136.7679  155.9791 C.3     1  UNL1        0.2101
      5 O         140.7424  136.3074  154.7174 O.3     1  UNL1       -0.4345
      6 C         141.1487  134.8848  154.4705 C.2     1  UNL1        0.4098
      7 O         140.7126  134.0308  153.3170 O.2     1  UNL1       -0.2258
      8 C         144.0005  130.4273  156.0305 C.ar    1  UNL1        0.0223
      9 C         144.8211  131.6732  156.1871 C.ar    1  UNL1        0.0045
     10 C         144.1769  133.0194  156.0368 C.ar    1  UNL1        0.0348
     11 C         142.7120  133.1199  155.7298 C.ar    1  UNL1        0.1400
     12 N         141.8914  131.8740  155.5732 N.ar    1  UNL1       -0.2287
     13 C         142.5357  130.5277  155.7235 C.ar    1  UNL1        0.1004
     14 C         144.6067  128.3749  157.5035 C.ar    1  UNL1        0.1385
     15 C         145.2509  127.0287  157.6538 C.ar    1  UNL1        0.0392
     16 C         145.9332  126.3887  156.4814 C.ar    1  UNL1        0.0327
     17 C         145.9713  127.0949  155.1585 C.ar    1  UNL1        0.1403
     18 F         146.6537  126.4548  153.9860 F       1  UNL1       -0.2042
     19 C         145.3271  128.4411  155.0082 C.ar    1  UNL1        0.0327
     20 C         144.6447  129.0811  156.1808 C.ar    1  UNL1        0.0377
     21 O         143.9243  129.0150  158.6760 O.3     1  UNL1       -0.4792
     22 C         144.5150  127.9674  160.9791 C.3     1  UNL1        0.0472
     23 C         143.5363  128.1842  159.8632 C.3     1  UNL1        0.1661
     24 C         142.1696  127.5701  159.9344 C.3     1  UNL1        0.0472
     25 N         140.8722  138.2613  158.0359 N.am    1  UNL1       -0.2975
     26 C         141.7075  139.0723  158.9816 C.2     1  UNL1        0.2459
     27 O         142.9524  139.7499  158.4905 O.2     1  UNL1       -0.2701
     28 H         140.0551  137.8165  158.3583 H       1  UNL1        0.1499
     29 C         141.2980  139.2058  160.4184 C.ar    1  UNL1        0.0534
     30 C         142.2802  138.8993  161.5098 C.ar    1  UNL1        0.0047
     31 C         141.8707  139.0327  162.9467 C.ar    1  UNL1        0.0048
     32 C         140.4790  139.4727  163.2921 C.ar    1  UNL1        0.0536
     33 C         139.4967  139.7792  162.2007 C.ar    1  UNL1        0.0048
     34 C         139.9062  139.6458  160.7638 C.ar    1  UNL1        0.0047
     35 C         140.0694  139.6061  164.7290 C.ar    1  UNL1        0.2296
     36 N         138.8980  138.9306  165.3783 N.ar    1  UNL1       -0.2082
     37 C         138.8641  139.3456  166.8193 C.ar    1  UNL1        0.1192
     38 C         137.9342  138.9952  167.9430 C.ar    1  UNL1        0.0326
     39 C         138.1548  139.5768  169.3080 C.ar    1  UNL1        0.0698
     40 C         139.3050  140.5087  169.5493 C.ar    1  UNL1        0.0091
     41 C         140.2349  140.8591  168.4256 C.ar    1  UNL1        0.0143
     42 C         140.0144  140.2775  167.0607 C.ar    1  UNL1        0.1607
     43 O         140.7594  140.4386  165.7687 O.2     1  UNL1       -0.4349
     44 C         141.3852  141.7910  168.6670 C.3     1  UNL1        0.0254
     45 C         141.1302  143.1875  169.1515 C.3     1  UNL1        0.0048
     46 C         142.7907  141.3264  168.4237 C.3     1  UNL1        0.0048
     47 C         137.2249  139.2264  170.4317 C.1     1  UNL1        0.1005
     48 N         136.2951  138.8761  171.5554 N.1     1  UNL1       -0.1908
@<TRIPOS>BOND
     1    22    23    1
     2    23    24    1
     3    23    21    1
     4    21    14    1
     5    14    15   ar
     6    15    16   ar
     7    16    17   ar
     8    17    18    1
     9    17    19   ar
    10    19    20   ar
    11    20     8    1
    12     8     9   ar
    13     9    10   ar
    14    10    11   ar
    15    11     2    1
    16     2     3    1
    17     3     4    1
    18     4     1    1
    19     1    25    1
    20    25    26   am
    21    26    27    2
    22    26    29    1
    23    29    30   ar
    24    30    31   ar
    25    31    32   ar
    26    32    35    1
    27    35    36   ar
    28    36    37   ar
    29    37    38   ar
    30    38    39   ar
    31    39    47    1
    32    47    48    3
    33    39    40   ar
    34    40    41   ar
    35    41    44    1
    36    44    45    1
    37    44    46    1
    38    41    42   ar
    39    42    43   ar
    40    32    33   ar
    41    33    34   ar
    42     4     5    1
    43     5     6    1
    44     6     7    2
    45    11    12   ar
    46    12    13   ar
    47    20    14   ar
    48    13     8   ar
    49     6     2   am
    50    34    29   ar
    51    43    35   ar
    52    42    37   ar
    53    25    28    1
@<TRIPOS>MOLECULE
*****
 48 53 0 0 0
SMALL
GASTEIGER

@<TRIPOS>ATOM
      1 C         141.5014  142.4311  155.7862 C.3     1  UNL1        0.1355
      2 N         143.3672  139.0422  156.1021 N.am    1  UNL1       -0.2059
      3 C         142.1013  139.8467  156.1124 C.3     1  UNL1        0.1483
      4 C         142.4614  141.2807  155.8595 C.3     1  UNL1        0.2101
      5 O         143.9498  141.3625  155.6929 O.3     1  UNL1       -0.4345
      6 C         144.5097  139.9790  155.8428 C.2     1  UNL1        0.4098
      7 O         145.9578  139.5990  155.7497 O.2     1  UNL1       -0.2258
      8 C         143.6824  134.5984  156.7374 C.ar    1  UNL1        0.0223
      9 C         144.2561  135.2216  155.4994 C.ar    1  UNL1        0.0045
     10 C         144.1510  136.7029  155.2876 C.ar    1  UNL1        0.0348
     11 C         143.4723  137.5610  156.3139 C.ar    1  UNL1        0.1400
     12 N         142.8986  136.9378  157.5519 N.ar    1  UNL1       -0.2287
     13 C         143.0037  135.4565  157.7636 C.ar    1  UNL1        0.1004
     14 C         142.7885  132.1961  156.3141 C.ar    1  UNL1        0.1385
     15 C         142.8935  130.7148  156.5259 C.ar    1  UNL1        0.0392
     16 C         143.9976  130.1547  157.3727 C.ar    1  UNL1        0.0327
     17 C         144.9967  131.0758  158.0078 C.ar    1  UNL1        0.1403
     18 F         146.1008  130.5157  158.8547 F       1  UNL1       -0.2042
     19 C         144.8916  132.5571  157.7960 C.ar    1  UNL1        0.0327
     20 C         143.7875  133.1172  156.9492 C.ar    1  UNL1        0.0377
     21 O         141.6843  132.7562  155.4673 O.3     1  UNL1       -0.4792
     22 C         142.5155  131.9780  153.1319 C.3     1  UNL1        0.0472
     23 C         141.9232  133.0375  154.0133 C.3     1  UNL1        0.1661
     24 C         141.5700  134.3782  153.4408 C.3     1  UNL1        0.0472
     25 N         140.0394  142.2049  156.0338 N.am    1  UNL1       -0.2975
     26 C         139.1578  141.7148  154.9237 C.2     1  UNL1        0.2459
     27 O         139.7381  141.4509  153.5659 O.2     1  UNL1       -0.2701
     28 H         139.6585  142.3781  156.9250 H       1  UNL1        0.1499
     29 C         137.6958  141.4885  155.1714 C.ar    1  UNL1        0.0534
     30 C         136.6947  141.8161  154.1035 C.ar    1  UNL1        0.0047
     31 C         135.2326  141.5899  154.3511 C.ar    1  UNL1        0.0048
     32 C         134.7717  141.0361  155.6667 C.ar    1  UNL1        0.0536
     33 C         135.7728  140.7085  156.7346 C.ar    1  UNL1        0.0048
     34 C         137.2348  140.9347  156.4870 C.ar    1  UNL1        0.0047
     35 C         133.3097  140.8099  155.9143 C.ar    1  UNL1        0.2296
     36 N         132.7169  139.7251  156.7640 N.ar    1  UNL1       -0.2082
     37 C         131.2246  139.8736  156.7306 C.ar    1  UNL1        0.1192
     38 C         130.1232  139.0894  157.3802 C.ar    1  UNL1        0.0326
     39 C         128.6923  139.4818  157.1595 C.ar    1  UNL1        0.0698
     40 C         128.3629  140.6582  156.2893 C.ar    1  UNL1        0.0091
     41 C         129.4643  141.4423  155.6396 C.ar    1  UNL1        0.0143
     42 C         130.8951  141.0500  155.8603 C.ar    1  UNL1        0.1607
     43 O         132.1838  141.6287  155.3558 O.2     1  UNL1       -0.4349
     44 C         129.1348  142.6187  154.7693 C.3     1  UNL1        0.0254
     45 C         128.5325  142.4027  153.4126 C.3     1  UNL1        0.0048
     46 C         129.4076  144.0113  155.2557 C.3     1  UNL1        0.0048
     47 C         127.5909  138.6976  157.8092 C.1     1  UNL1        0.1005
     48 N         126.4894  137.9135  158.4589 N.1     1  UNL1       -0.1908
@<TRIPOS>BOND
     1    22    23    1
     2    23    24    1
     3    23    21    1
     4    21    14    1
     5    14    15   ar
     6    15    16   ar
     7    16    17   ar
     8    17    18    1
     9    17    19   ar
    10    19    20   ar
    11    20     8    1
    12     8     9   ar
    13     9    10   ar
    14    10    11   ar
    15    11     2    1
    16     2     3    1
    17     3     4    1
    18     4     1    1
    19     1    25    1
    20    25    26   am
    21    26    27    2
    22    26    29    1
    23    29    30   ar
    24    30    31   ar
    25    31    32   ar
    26    32    35    1
    27    35    36   ar
    28    36    37   ar
    29    37    38   ar
    30    38    39   ar
    31    39    47    1
    32    47    48    3
    33    39    40   ar
    34    40    41   ar
    35    41    44    1
    36    44    45    1
    37    44    46    1
    38    41    42   ar
    39    42    43   ar
    40    32    33   ar
    41    33    34   ar
    42     4     5    1
    43     5     6    1
    44     6     7    2
    45    11    12   ar
    46    12    13   ar
    47    20    14   ar
    48    13     8   ar
    49     6     2   am
    50    34    29   ar
    51    43    35   ar
    52    42    37   ar
    53    25    28    1
