@<TRIPOS>MOLECULE
*****
 34 37 0 0 0
SMALL
GASTEIGER

@<TRIPOS>ATOM
      1 N         139.4456  140.4440  167.7865 N.ar    1  UNL1       -0.2380
      2 N         140.2187  141.3926  166.9192 N.ar    1  UNL1       -0.1680
      3 C         139.9374  141.0456  165.4872 C.ar    1  UNL1        0.1079
      4 C         138.9904  139.8825  165.4695 C.ar    1  UNL1        0.1031
      5 C         138.6864  139.5107  166.8905 C.ar    1  UNL1        0.1281
      6 N         137.7820  138.4004  167.3372 N.pl3   1  UNL1       -0.3427
      7 H         137.3254  137.8388  166.6698 H       1  UNL1        0.1437
      8 H         137.6451  138.2333  168.2977 H       1  UNL1        0.1437
      9 C         140.5038  141.7399  164.2841 C.ar    1  UNL1        0.0196
     10 C         141.7831  141.2534  163.6704 C.ar    1  UNL1        0.0016
     11 C         142.3494  141.9477  162.4674 C.ar    1  UNL1        0.0001
     12 C         141.6363  143.1285  161.8781 C.ar    1  UNL1        0.0030
     13 C         142.2027  143.8227  160.6750 C.ar    1  UNL1        0.0369
     14 C         141.4897  145.0035  160.0857 C.ar    1  UNL1        0.1384
     15 C         140.2103  145.4901  160.6995 C.ar    1  UNL1        0.0369
     16 C         139.6440  144.7958  161.9025 C.ar    1  UNL1        0.0031
     17 C         140.3570  143.6150  162.4918 C.ar    1  UNL1        0.0002
     18 C         139.7908  142.9207  163.6948 C.ar    1  UNL1        0.0016
     19 O         142.0559  145.6978  158.8827 O.3     1  UNL1       -0.4792
     20 C         141.2192  145.8625  157.6487 C.3     1  UNL1        0.1661
     21 C         139.9801  146.3779  156.9786 C.3     1  UNL1        0.0472
     22 C         141.0090  145.6324  156.1815 C.3     1  UNL1        0.0472
     23 C         138.4434  139.2094  164.2457 C.2     1  UNL1        0.2470
     24 N         137.5862  139.9798  163.2858 N.am    1  UNL1       -0.3252
     25 O         138.7538  137.7657  163.9818 O.2     1  UNL1       -0.2702
     26 H         137.3825  140.9273  163.4589 H       1  UNL1        0.1453
     27 H         137.2272  139.5379  162.4826 H       1  UNL1        0.1453
     28 C         139.4336  140.4309  169.2864 C.3     1  UNL1        0.1311
     29 C         139.9072  142.2168  170.3287 C.3     1  UNL1        0.0045
     30 C         140.6245  140.9291  170.0503 C.3     1  UNL1        0.0497
     31 C         141.3417  139.6416  169.7719 C.3     1  UNL1        0.0045
     32 C         141.8154  141.4273  170.8142 C.3     1  UNL1        0.1389
     33 O         142.2302  140.7460  172.0845 O.3     1  UNL1       -0.3819
     34 H         141.5424  140.8698  172.7572 H       1  UNL1        0.2104
@<TRIPOS>BOND
     1    29    30    1
     2    30    31    1
     3    30    32    1
     4    32    33    1
     5    30    28    1
     6    28     1    1
     7     1     2   ar
     8     2     3   ar
     9     3     9    1
    10     9    10   ar
    11    10    11   ar
    12    11    12   ar
    13    12    13   ar
    14    13    14   ar
    15    14    19    1
    16    19    20    1
    17    20    21    1
    18    21    22    1
    19    14    15   ar
    20    15    16   ar
    21    16    17   ar
    22    17    18   ar
    23     3     4   ar
    24     4    23    1
    25    23    24   am
    26    23    25    2
    27     4     5   ar
    28     5     6    1
    29     5     1   ar
    30    18     9   ar
    31    17    12   ar
    32    22    20    1
    33    33    34    1
    34    24    26    1
    35    24    27    1
    36     6     7    1
    37     6     8    1
@<TRIPOS>MOLECULE
*****
 34 37 0 0 0
SMALL
GASTEIGER

@<TRIPOS>ATOM
      1 N         139.6733  140.7635  167.7296 N.ar    1  UNL1       -0.2380
      2 N         140.1627  141.9212  166.9110 N.ar    1  UNL1       -0.1680
      3 C         139.6535  141.7470  165.5108 C.ar    1  UNL1        0.1079
      4 C         138.8494  140.4817  165.4641 C.ar    1  UNL1        0.1031
      5 C         138.8616  139.8738  166.8353 C.ar    1  UNL1        0.1281
      6 N         138.1815  138.5998  167.2411 N.pl3   1  UNL1       -0.3427
      7 H         137.6689  138.0828  166.5784 H       1  UNL1        0.1437
      8 H         138.2478  138.2808  168.1701 H       1  UNL1        0.1437
      9 C         139.9044  142.6753  164.3595 C.ar    1  UNL1        0.0196
     10 C         139.3255  144.0590  164.3719 C.ar    1  UNL1        0.0016
     11 C         139.5764  144.9872  163.2206 C.ar    1  UNL1        0.0001
     12 C         140.4063  144.5318  162.0571 C.ar    1  UNL1        0.0030
     13 C         140.6572  145.4601  160.9058 C.ar    1  UNL1        0.0369
     14 C         141.4870  145.0046  159.7422 C.ar    1  UNL1        0.1384
     15 C         142.0660  143.6208  159.7299 C.ar    1  UNL1        0.0369
     16 C         141.8151  142.6926  160.8812 C.ar    1  UNL1        0.0031
     17 C         140.9852  143.1481  162.0447 C.ar    1  UNL1        0.0002
     18 C         140.7343  142.2199  163.1960 C.ar    1  UNL1        0.0016
     19 O         141.7380  145.9328  158.5910 O.3     1  UNL1       -0.4792
     20 C         140.8042  145.9413  157.4170 C.3     1  UNL1        0.1661
     21 C         139.8130  146.6604  156.5507 C.3     1  UNL1        0.0472
     22 C         140.1780  145.2369  156.2501 C.3     1  UNL1        0.0472
     23 C         138.1550  139.9224  164.2579 C.2     1  UNL1        0.2470
     24 N         137.1708  140.7643  163.5013 N.am    1  UNL1       -0.3252
     25 O         138.4448  138.5209  163.8083 O.2     1  UNL1       -0.2702
     26 H         136.9806  141.6841  163.7963 H       1  UNL1        0.1453
     27 H         136.7151  140.3971  162.7096 H       1  UNL1        0.1453
     28 C         139.9474  140.5354  169.1866 C.3     1  UNL1        0.1311
     29 C         139.8876  142.3233  170.3267 C.3     1  UNL1        0.0045
     30 C         140.9672  141.3743  169.8981 C.3     1  UNL1        0.0497
     31 C         142.0468  140.4253  169.4696 C.3     1  UNL1        0.0045
     32 C         141.9871  142.2131  170.6097 C.3     1  UNL1        0.1389
     33 O         142.0316  142.2282  172.1090 O.3     1  UNL1       -0.3819
     34 H         141.2199  142.6332  172.4525 H       1  UNL1        0.2104
@<TRIPOS>BOND
     1    29    30    1
     2    30    31    1
     3    30    32    1
     4    32    33    1
     5    30    28    1
     6    28     1    1
     7     1     2   ar
     8     2     3   ar
     9     3     9    1
    10     9    10   ar
    11    10    11   ar
    12    11    12   ar
    13    12    13   ar
    14    13    14   ar
    15    14    19    1
    16    19    20    1
    17    20    21    1
    18    21    22    1
    19    14    15   ar
    20    15    16   ar
    21    16    17   ar
    22    17    18   ar
    23     3     4   ar
    24     4    23    1
    25    23    24   am
    26    23    25    2
    27     4     5   ar
    28     5     6    1
    29     5     1   ar
    30    18     9   ar
    31    17    12   ar
    32    22    20    1
    33    33    34    1
    34    24    26    1
    35    24    27    1
    36     6     7    1
    37     6     8    1
@<TRIPOS>MOLECULE
*****
 34 37 0 0 0
SMALL
GASTEIGER

@<TRIPOS>ATOM
      1 N         142.6184  139.8190  167.7227 N.ar    1  UNL1       -0.2380
      2 N         142.0839  141.0355  167.0268 N.ar    1  UNL1       -0.1680
      3 C         142.4602  140.9434  165.5776 C.ar    1  UNL1        0.1079
      4 C         143.2274  139.6700  165.3780 C.ar    1  UNL1        0.1031
      5 C         143.3252  138.9751  166.7036 C.ar    1  UNL1        0.1281
      6 N         144.0096  137.6660  166.9645 N.pl3   1  UNL1       -0.3427
      7 H         144.4481  137.1841  166.2264 H       1  UNL1        0.1437
      8 H         144.0202  137.2887  167.8738 H       1  UNL1        0.1437
      9 C         142.1277  141.9484  164.5148 C.ar    1  UNL1        0.0196
     10 C         142.7662  143.3055  164.5398 C.ar    1  UNL1        0.0016
     11 C         142.4337  144.3104  163.4770 C.ar    1  UNL1        0.0001
     12 C         141.4627  143.9582  162.3892 C.ar    1  UNL1        0.0030
     13 C         141.1303  144.9632  161.3264 C.ar    1  UNL1        0.0369
     14 C         140.1593  144.6110  160.2386 C.ar    1  UNL1        0.1384
     15 C         139.5208  143.2539  160.2137 C.ar    1  UNL1        0.0369
     16 C         139.8533  142.2490  161.2765 C.ar    1  UNL1        0.0031
     17 C         140.8243  142.6011  162.3642 C.ar    1  UNL1        0.0002
     18 C         141.1568  141.5962  163.4270 C.ar    1  UNL1        0.0016
     19 O         139.8268  145.6159  159.1758 O.3     1  UNL1       -0.4792
     20 C         140.7239  145.7715  157.9837 C.3     1  UNL1        0.1661
     21 C         142.0996  145.9134  157.4029 C.3     1  UNL1        0.0472
     22 C         140.9020  145.8991  156.4998 C.3     1  UNL1        0.0472
     23 C         143.7968  139.1780  164.0804 C.2     1  UNL1        0.2470
     24 N         145.1888  139.5650  163.6774 N.am    1  UNL1       -0.3252
     25 O         142.9741  138.2988  163.1858 O.2     1  UNL1       -0.2702
     26 H         145.7288  140.1420  164.2646 H       1  UNL1        0.1453
     27 H         145.5625  139.2419  162.8258 H       1  UNL1        0.1453
     28 C         142.4720  139.5020  169.1815 C.3     1  UNL1        0.1311
     29 C         143.2142  141.2030  170.2090 C.3     1  UNL1        0.0045
     30 C         141.8829  140.5182  170.1144 C.3     1  UNL1        0.0497
     31 C         140.5518  139.8335  170.0198 C.3     1  UNL1        0.0045
     32 C         141.2939  141.5345  171.0472 C.3     1  UNL1        0.1389
     33 O         142.1748  142.2551  172.0243 O.3     1  UNL1       -0.3819
     34 H         142.5239  141.6230  172.6721 H       1  UNL1        0.2104
@<TRIPOS>BOND
     1    29    30    1
     2    30    31    1
     3    30    32    1
     4    32    33    1
     5    30    28    1
     6    28     1    1
     7     1     2   ar
     8     2     3   ar
     9     3     9    1
    10     9    10   ar
    11    10    11   ar
    12    11    12   ar
    13    12    13   ar
    14    13    14   ar
    15    14    19    1
    16    19    20    1
    17    20    21    1
    18    21    22    1
    19    14    15   ar
    20    15    16   ar
    21    16    17   ar
    22    17    18   ar
    23     3     4   ar
    24     4    23    1
    25    23    24   am
    26    23    25    2
    27     4     5   ar
    28     5     6    1
    29     5     1   ar
    30    18     9   ar
    31    17    12   ar
    32    22    20    1
    33    33    34    1
    34    24    26    1
    35    24    27    1
    36     6     7    1
    37     6     8    1
@<TRIPOS>MOLECULE
*****
 34 37 0 0 0
SMALL
GASTEIGER

@<TRIPOS>ATOM
      1 N         140.3629  141.7865  167.6571 N.ar    1  UNL1       -0.2380
      2 N         140.2120  142.0454  166.1874 N.ar    1  UNL1       -0.1680
      3 C         139.4759  140.8852  165.5855 C.ar    1  UNL1        0.1079
      4 C         139.1719  139.9093  166.6833 C.ar    1  UNL1        0.1031
      5 C         139.7200  140.4663  167.9636 C.ar    1  UNL1        0.1281
      6 N         139.6395  139.8171  169.3135 N.pl3   1  UNL1       -0.3427
      7 H         139.1947  138.9446  169.4143 H       1  UNL1        0.1437
      8 H         140.0315  140.2635  170.0985 H       1  UNL1        0.1437
      9 C         139.1084  140.7285  164.1396 C.ar    1  UNL1        0.0196
     10 C         137.7655  141.1866  163.6532 C.ar    1  UNL1        0.0016
     11 C         137.3980  141.0299  162.2074 C.ar    1  UNL1        0.0001
     12 C         138.3735  140.4151  161.2480 C.ar    1  UNL1        0.0030
     13 C         138.0060  140.2584  159.8022 C.ar    1  UNL1        0.0369
     14 C         138.9814  139.6436  158.8428 C.ar    1  UNL1        0.1384
     15 C         140.3244  139.1854  159.3292 C.ar    1  UNL1        0.0369
     16 C         140.6919  139.3421  160.7750 C.ar    1  UNL1        0.0031
     17 C         139.7164  139.9570  161.7344 C.ar    1  UNL1        0.0002
     18 C         140.0838  140.1137  163.1802 C.ar    1  UNL1        0.0016
     19 O         138.6140  139.4869  157.3970 O.3     1  UNL1       -0.4792
     20 C         137.9544  140.6172  156.6639 C.3     1  UNL1        0.1661
     21 C         137.8276  141.4721  155.4379 C.3     1  UNL1        0.0472
     22 C         136.9387  141.7201  156.6204 C.3     1  UNL1        0.0472
     23 C         138.4469  138.6053  166.5280 C.2     1  UNL1        0.2470
     24 N         137.3220  138.2573  167.4570 N.am    1  UNL1       -0.3252
     25 O         138.8471  137.6493  165.4436 O.2     1  UNL1       -0.2702
     26 H         137.0593  138.8847  168.1688 H       1  UNL1        0.1453
     27 H         136.8462  137.4014  167.3551 H       1  UNL1        0.1453
     28 C         141.0380  142.6893  168.6466 C.3     1  UNL1        0.1311
     29 C         142.9685  142.2250  167.8998 C.3     1  UNL1        0.0045
     30 C         142.3442  142.2836  169.2625 C.3     1  UNL1        0.0497
     31 C         141.7200  142.3422  170.6251 C.3     1  UNL1        0.0045
     32 C         143.6505  141.8778  169.8783 C.3     1  UNL1        0.1389
     33 O         144.6547  142.9233  170.2636 O.3     1  UNL1       -0.3819
     34 H         144.9822  143.3668  169.4654 H       1  UNL1        0.2104
@<TRIPOS>BOND
     1    29    30    1
     2    30    31    1
     3    30    32    1
     4    32    33    1
     5    30    28    1
     6    28     1    1
     7     1     2   ar
     8     2     3   ar
     9     3     9    1
    10     9    10   ar
    11    10    11   ar
    12    11    12   ar
    13    12    13   ar
    14    13    14   ar
    15    14    19    1
    16    19    20    1
    17    20    21    1
    18    21    22    1
    19    14    15   ar
    20    15    16   ar
    21    16    17   ar
    22    17    18   ar
    23     3     4   ar
    24     4    23    1
    25    23    24   am
    26    23    25    2
    27     4     5   ar
    28     5     6    1
    29     5     1   ar
    30    18     9   ar
    31    17    12   ar
    32    22    20    1
    33    33    34    1
    34    24    26    1
    35    24    27    1
    36     6     7    1
    37     6     8    1
@<TRIPOS>MOLECULE
*****
 34 37 0 0 0
SMALL
GASTEIGER

@<TRIPOS>ATOM
      1 N         140.7860  140.3565  168.9996 N.ar    1  UNL1       -0.2380
      2 N         141.6011  140.1038  167.7660 N.ar    1  UNL1       -0.1680
      3 C         140.6971  139.5102  166.7266 C.ar    1  UNL1        0.1079
      4 C         139.3233  139.3960  167.3177 C.ar    1  UNL1        0.1031
      5 C         139.3782  139.9190  168.7225 C.ar    1  UNL1        0.1281
      6 N         138.2273  139.9919  169.6818 N.pl3   1  UNL1       -0.3427
      7 H         137.3358  139.6783  169.4058 H       1  UNL1        0.1437
      8 H         138.3635  140.3531  170.5874 H       1  UNL1        0.1437
      9 C         141.0969  139.1024  165.3395 C.ar    1  UNL1        0.0196
     10 C         140.8366  137.7036  164.8646 C.ar    1  UNL1        0.0016
     11 C         141.2363  137.2959  163.4776 C.ar    1  UNL1        0.0001
     12 C         141.8964  138.2869  162.5654 C.ar    1  UNL1        0.0030
     13 C         142.2961  137.8791  161.1783 C.ar    1  UNL1        0.0369
     14 C         142.9561  138.8702  160.2661 C.ar    1  UNL1        0.1384
     15 C         143.2164  140.2691  160.7410 C.ar    1  UNL1        0.0369
     16 C         142.8167  140.6768  162.1280 C.ar    1  UNL1        0.0031
     17 C         142.1567  139.6857  163.0402 C.ar    1  UNL1        0.0002
     18 C         141.7569  140.0935  164.4272 C.ar    1  UNL1        0.0016
     19 O         143.3559  138.4624  158.8790 O.3     1  UNL1       -0.4792
     20 C         143.0790  139.3738  157.7202 C.3     1  UNL1        0.1661
     21 C         143.4201  139.8677  156.3455 C.3     1  UNL1        0.0472
     22 C         142.2582  140.4584  157.0879 C.3     1  UNL1        0.0472
     23 C         138.1079  138.8540  166.6256 C.2     1  UNL1        0.2470
     24 N         137.3229  137.7395  167.2513 N.am    1  UNL1       -0.3252
     25 O         137.6775  139.4266  165.3076 O.2     1  UNL1       -0.2702
     26 H         137.6053  137.3637  168.1163 H       1  UNL1        0.1453
     27 H         136.5252  137.3838  166.7970 H       1  UNL1        0.1453
     28 C         141.2901  140.9435  170.2846 C.3     1  UNL1        0.1311
     29 C         143.3961  140.8532  170.5231 C.3     1  UNL1        0.0045
     30 C         142.4039  141.9480  170.2642 C.3     1  UNL1        0.0497
     31 C         141.4119  143.0428  170.0053 C.3     1  UNL1        0.0045
     32 C         143.5178  142.9525  170.2439 C.3     1  UNL1        0.1389
     33 O         143.5443  144.0633  171.2515 O.3     1  UNL1       -0.3819
     34 H         142.7899  144.6543  171.1013 H       1  UNL1        0.2104
@<TRIPOS>BOND
     1    29    30    1
     2    30    31    1
     3    30    32    1
     4    32    33    1
     5    30    28    1
     6    28     1    1
     7     1     2   ar
     8     2     3   ar
     9     3     9    1
    10     9    10   ar
    11    10    11   ar
    12    11    12   ar
    13    12    13   ar
    14    13    14   ar
    15    14    19    1
    16    19    20    1
    17    20    21    1
    18    21    22    1
    19    14    15   ar
    20    15    16   ar
    21    16    17   ar
    22    17    18   ar
    23     3     4   ar
    24     4    23    1
    25    23    24   am
    26    23    25    2
    27     4     5   ar
    28     5     6    1
    29     5     1   ar
    30    18     9   ar
    31    17    12   ar
    32    22    20    1
    33    33    34    1
    34    24    26    1
    35    24    27    1
    36     6     7    1
    37     6     8    1
@<TRIPOS>MOLECULE
*****
 34 37 0 0 0
SMALL
GASTEIGER

@<TRIPOS>ATOM
      1 N         139.6706  140.5637  167.6988 N.ar    1  UNL1       -0.2380
      2 N         140.4937  141.4081  166.7718 N.ar    1  UNL1       -0.1680
      3 C         140.1834  140.9898  165.3651 C.ar    1  UNL1        0.1079
      4 C         139.1685  139.8868  165.4227 C.ar    1  UNL1        0.1031
      5 C         138.8515  139.6235  166.8650 C.ar    1  UNL1        0.1281
      6 N         137.8851  138.5997  167.3826 N.pl3   1  UNL1       -0.3427
      7 H         137.3916  138.0259  166.7530 H       1  UNL1        0.1437
      8 H         137.7443  138.5015  168.3521 H       1  UNL1        0.1437
      9 C         140.7829  141.5722  164.1195 C.ar    1  UNL1        0.0196
     10 C         140.3225  142.9095  163.6200 C.ar    1  UNL1        0.0016
     11 C         140.9219  143.4919  162.3744 C.ar    1  UNL1        0.0001
     12 C         141.9818  142.7369  161.6284 C.ar    1  UNL1        0.0030
     13 C         142.5813  143.3193  160.3827 C.ar    1  UNL1        0.0369
     14 C         143.6412  142.5644  159.6367 C.ar    1  UNL1        0.1384
     15 C         144.1016  141.2270  160.1362 C.ar    1  UNL1        0.0369
     16 C         143.5022  140.6446  161.3818 C.ar    1  UNL1        0.0031
     17 C         142.4423  141.3996  162.1279 C.ar    1  UNL1        0.0002
     18 C         141.8428  140.8172  163.3734 C.ar    1  UNL1        0.0016
     19 O         144.2407  143.1467  158.3911 O.3     1  UNL1       -0.4792
     20 C         145.0777  142.2885  157.4895 C.3     1  UNL1        0.1661
     21 C         145.2597  141.0280  156.6969 C.3     1  UNL1        0.0472
     22 C         146.3456  142.0625  156.7204 C.3     1  UNL1        0.0472
     23 C         138.5748  139.1726  164.2449 C.2     1  UNL1        0.2470
     24 N         138.8021  137.7006  164.0677 N.am    1  UNL1       -0.3252
     25 O         137.7535  139.9305  163.2442 O.2     1  UNL1       -0.2702
     26 H         139.3411  137.2032  164.7244 H       1  UNL1        0.1453
     27 H         138.4124  137.2319  163.2946 H       1  UNL1        0.1453
     28 C         139.6670  140.6452  169.1966 C.3     1  UNL1        0.1311
     29 C         141.5129  139.7858  169.7918 C.3     1  UNL1        0.0045
     30 C         140.8821  141.1403  169.9236 C.3     1  UNL1        0.0497
     31 C         140.2513  142.4947  170.0554 C.3     1  UNL1        0.0045
     32 C         142.0971  141.6354  170.6507 C.3     1  UNL1        0.1389
     33 O         141.9737  142.1483  172.0548 O.3     1  UNL1       -0.3819
     34 H         141.4414  142.9592  172.0572 H       1  UNL1        0.2104
@<TRIPOS>BOND
     1    29    30    1
     2    30    31    1
     3    30    32    1
     4    32    33    1
     5    30    28    1
     6    28     1    1
     7     1     2   ar
     8     2     3   ar
     9     3     9    1
    10     9    10   ar
    11    10    11   ar
    12    11    12   ar
    13    12    13   ar
    14    13    14   ar
    15    14    19    1
    16    19    20    1
    17    20    21    1
    18    21    22    1
    19    14    15   ar
    20    15    16   ar
    21    16    17   ar
    22    17    18   ar
    23     3     4   ar
    24     4    23    1
    25    23    24   am
    26    23    25    2
    27     4     5   ar
    28     5     6    1
    29     5     1   ar
    30    18     9   ar
    31    17    12   ar
    32    22    20    1
    33    33    34    1
    34    24    26    1
    35    24    27    1
    36     6     7    1
    37     6     8    1
@<TRIPOS>MOLECULE
*****
 34 37 0 0 0
SMALL
GASTEIGER

@<TRIPOS>ATOM
      1 N         142.4410  140.0478  167.6616 N.ar    1  UNL1       -0.2380
      2 N         142.2983  139.1963  166.4350 N.ar    1  UNL1       -0.1680
      3 C         142.7516  140.0037  165.2549 C.ar    1  UNL1        0.1079
      4 C         143.1744  141.3542  165.7521 C.ar    1  UNL1        0.1031
      5 C         142.9825  141.3815  167.2395 C.ar    1  UNL1        0.1281
      6 N         143.2798  142.5393  168.1458 N.pl3   1  UNL1       -0.3427
      7 H         143.6350  143.3781  167.7724 H       1  UNL1        0.1437
      8 H         143.1197  142.4603  169.1139 H       1  UNL1        0.1437
      9 C         142.7775  139.5416  163.8280 C.ar    1  UNL1        0.0196
     10 C         144.0433  138.9914  163.2407 C.ar    1  UNL1        0.0016
     11 C         144.0691  138.5293  161.8139 C.ar    1  UNL1        0.0001
     12 C         142.8291  138.6175  160.9744 C.ar    1  UNL1        0.0030
     13 C         142.8550  138.1554  159.5476 C.ar    1  UNL1        0.0369
     14 C         141.6151  138.2435  158.7081 C.ar    1  UNL1        0.1384
     15 C         140.3492  138.7937  159.2955 C.ar    1  UNL1        0.0369
     16 C         140.3234  139.2557  160.7223 C.ar    1  UNL1        0.0031
     17 C         141.5633  139.1676  161.5618 C.ar    1  UNL1        0.0002
     18 C         141.5375  139.6297  162.9885 C.ar    1  UNL1        0.0016
     19 O         141.6409  137.7814  157.2813 O.3     1  UNL1       -0.4792
     20 C         142.5869  136.6956  156.8616 C.3     1  UNL1        0.1661
     21 C         143.7125  136.2173  155.9930 C.3     1  UNL1        0.0472
     22 C         143.0998  135.2932  157.0032 C.3     1  UNL1        0.0472
     23 C         143.6974  142.4798  164.9098 C.2     1  UNL1        0.2470
     24 N         145.0802  142.4058  164.3336 N.am    1  UNL1       -0.3252
     25 O         142.8373  143.6797  164.6437 O.2     1  UNL1       -0.2702
     26 H         145.6447  141.6183  164.5082 H       1  UNL1        0.1453
     27 H         145.4234  143.1446  163.7808 H       1  UNL1        0.1453
     28 C         142.1018  139.6377  169.0640 C.3     1  UNL1        0.1311
     29 C         142.1857  140.7157  170.8891 C.3     1  UNL1        0.0045
     30 C         141.1234  140.4443  169.8654 C.3     1  UNL1        0.0497
     31 C         140.0612  140.1728  168.8418 C.3     1  UNL1        0.0045
     32 C         140.1450  141.2508  170.6668 C.3     1  UNL1        0.1389
     33 O         140.6210  142.0612  171.8360 O.3     1  UNL1       -0.3819
     34 H         140.9482  141.4670  172.5294 H       1  UNL1        0.2104
@<TRIPOS>BOND
     1    29    30    1
     2    30    31    1
     3    30    32    1
     4    32    33    1
     5    30    28    1
     6    28     1    1
     7     1     2   ar
     8     2     3   ar
     9     3     9    1
    10     9    10   ar
    11    10    11   ar
    12    11    12   ar
    13    12    13   ar
    14    13    14   ar
    15    14    19    1
    16    19    20    1
    17    20    21    1
    18    21    22    1
    19    14    15   ar
    20    15    16   ar
    21    16    17   ar
    22    17    18   ar
    23     3     4   ar
    24     4    23    1
    25    23    24   am
    26    23    25    2
    27     4     5   ar
    28     5     6    1
    29     5     1   ar
    30    18     9   ar
    31    17    12   ar
    32    22    20    1
    33    33    34    1
    34    24    26    1
    35    24    27    1
    36     6     7    1
    37     6     8    1
@<TRIPOS>MOLECULE
*****
 34 37 0 0 0
SMALL
GASTEIGER

@<TRIPOS>ATOM
      1 N         141.3446  140.4890  167.9457 N.ar    1  UNL1       -0.2380
      2 N         142.2637  140.4788  166.7603 N.ar    1  UNL1       -0.1680
      3 C         141.5252  139.8682  165.6063 C.ar    1  UNL1        0.1079
      4 C         140.1496  139.5010  166.0784 C.ar    1  UNL1        0.1031
      5 C         140.0379  139.8847  167.5242 C.ar    1  UNL1        0.1281
      6 N         138.8315  139.6970  168.3955 N.pl3   1  UNL1       -0.3427
      7 H         138.0158  139.2883  168.0255 H       1  UNL1        0.1437
      8 H         138.8553  139.9825  169.3374 H       1  UNL1        0.1437
      9 C         142.0672  139.6612  164.2230 C.ar    1  UNL1        0.0196
     10 C         142.5158  138.2970  163.7896 C.ar    1  UNL1        0.0016
     11 C         143.0577  138.0901  162.4064 C.ar    1  UNL1        0.0001
     12 C         143.1511  139.2472  161.4565 C.ar    1  UNL1        0.0030
     13 C         143.6931  139.0402  160.0732 C.ar    1  UNL1        0.0369
     14 C         143.7865  140.1973  159.1233 C.ar    1  UNL1        0.1384
     15 C         143.3378  141.5615  159.5567 C.ar    1  UNL1        0.0369
     16 C         142.7959  141.7685  160.9400 C.ar    1  UNL1        0.0031
     17 C         142.7025  140.6113  161.8899 C.ar    1  UNL1        0.0002
     18 C         142.1606  140.8183  163.2731 C.ar    1  UNL1        0.0016
     19 O         144.3284  139.9903  157.7401 O.3     1  UNL1       -0.4792
     20 C         144.9825  141.1276  157.0128 C.3     1  UNL1        0.1661
     21 C         146.2210  141.8014  156.5010 C.3     1  UNL1        0.0472
     22 C         144.8768  142.4236  156.2651 C.3     1  UNL1        0.0472
     23 C         139.0744  138.8623  165.2501 C.2     1  UNL1        0.2470
     24 N         138.9190  137.3705  165.2439 N.am    1  UNL1       -0.3252
     25 O         138.1545  139.7157  164.4280 O.2     1  UNL1       -0.2702
     26 H         139.5227  136.8104  165.7834 H       1  UNL1        0.1453
     27 H         138.2133  136.9514  164.7003 H       1  UNL1        0.1453
     28 C         141.6741  141.0117  169.3125 C.3     1  UNL1        0.1311
     29 C         140.5752  141.0783  171.1257 C.3     1  UNL1        0.0045
     30 C         140.7721  142.0138  169.9698 C.3     1  UNL1        0.0497
     31 C         140.9689  142.9492  168.8140 C.3     1  UNL1        0.0045
     32 C         139.8700  143.0159  170.6272 C.3     1  UNL1        0.1389
     33 O         140.0000  144.4730  170.2956 O.3     1  UNL1       -0.3819
     34 H         140.8590  144.7998  170.6058 H       1  UNL1        0.2104
@<TRIPOS>BOND
     1    29    30    1
     2    30    31    1
     3    30    32    1
     4    32    33    1
     5    30    28    1
     6    28     1    1
     7     1     2   ar
     8     2     3   ar
     9     3     9    1
    10     9    10   ar
    11    10    11   ar
    12    11    12   ar
    13    12    13   ar
    14    13    14   ar
    15    14    19    1
    16    19    20    1
    17    20    21    1
    18    21    22    1
    19    14    15   ar
    20    15    16   ar
    21    16    17   ar
    22    17    18   ar
    23     3     4   ar
    24     4    23    1
    25    23    24   am
    26    23    25    2
    27     4     5   ar
    28     5     6    1
    29     5     1   ar
    30    18     9   ar
    31    17    12   ar
    32    22    20    1
    33    33    34    1
    34    24    26    1
    35    24    27    1
    36     6     7    1
    37     6     8    1
@<TRIPOS>MOLECULE
*****
 34 37 0 0 0
SMALL
GASTEIGER

@<TRIPOS>ATOM
      1 N         141.7585  139.3360  158.0601 N.ar    1  UNL1       -0.2380
      2 N         140.7829  139.0843  159.1713 N.ar    1  UNL1       -0.1680
      3 C         141.5122  139.2400  160.4728 C.ar    1  UNL1        0.1079
      4 C         142.9387  139.5879  160.1659 C.ar    1  UNL1        0.1031
      5 C         143.0909  139.6472  158.6749 C.ar    1  UNL1        0.1281
      6 N         144.3538  139.9625  157.9294 N.pl3   1  UNL1       -0.3427
      7 H         145.1828  140.1544  158.4245 H       1  UNL1        0.1437
      8 H         144.3537  139.9774  156.9450 H       1  UNL1        0.1437
      9 C         140.9192  139.0765  161.8409 C.ar    1  UNL1        0.0196
     10 C         140.2296  137.7970  162.2113 C.ar    1  UNL1        0.0016
     11 C         139.6366  137.6336  163.5794 C.ar    1  UNL1        0.0001
     12 C         139.7332  138.7496  164.5770 C.ar    1  UNL1        0.0030
     13 C         139.1402  138.5861  165.9451 C.ar    1  UNL1        0.0369
     14 C         139.2369  139.7021  166.9427 C.ar    1  UNL1        0.1384
     15 C         139.9266  140.9816  166.5721 C.ar    1  UNL1        0.0369
     16 C         140.5196  141.1451  165.2041 C.ar    1  UNL1        0.0031
     17 C         140.4229  140.0291  164.2065 C.ar    1  UNL1        0.0002
     18 C         141.0159  140.1925  162.8385 C.ar    1  UNL1        0.0016
     19 O         138.6439  139.5386  168.3107 O.3     1  UNL1       -0.4792
     20 C         139.2710  140.2265  169.4871 C.3     1  UNL1        0.1661
     21 C         139.5257  141.4757  170.2774 C.3     1  UNL1        0.0472
     22 C         140.1024  140.1686  170.7342 C.3     1  UNL1        0.0472
     23 C         144.0226  139.8335  161.1733 C.2     1  UNL1        0.2470
     24 N         144.5762  138.6915  161.9729 N.am    1  UNL1       -0.3252
     25 O         144.5530  141.2212  161.3811 O.2     1  UNL1       -0.2702
     26 H         144.2281  137.7807  161.8365 H       1  UNL1        0.1453
     27 H         145.2876  138.8527  162.6340 H       1  UNL1        0.1453
     28 C         141.4551  139.2853  156.5920 C.3     1  UNL1        0.1311
     29 C         141.9237  137.2731  156.1107 C.3     1  UNL1        0.0045
     30 C         140.6925  138.1255  156.0234 C.3     1  UNL1        0.0497
     31 C         139.4614  138.9778  155.9360 C.3     1  UNL1        0.0045
     32 C         139.9299  136.9656  155.4547 C.3     1  UNL1        0.1389
     33 O         138.5068  136.7299  155.8658 O.3     1  UNL1       -0.3819
     34 H         138.4763  136.4984  156.8073 H       1  UNL1        0.2104
@<TRIPOS>BOND
     1    29    30    1
     2    30    31    1
     3    30    32    1
     4    32    33    1
     5    30    28    1
     6    28     1    1
     7     1     2   ar
     8     2     3   ar
     9     3     9    1
    10     9    10   ar
    11    10    11   ar
    12    11    12   ar
    13    12    13   ar
    14    13    14   ar
    15    14    19    1
    16    19    20    1
    17    20    21    1
    18    21    22    1
    19    14    15   ar
    20    15    16   ar
    21    16    17   ar
    22    17    18   ar
    23     3     4   ar
    24     4    23    1
    25    23    24   am
    26    23    25    2
    27     4     5   ar
    28     5     6    1
    29     5     1   ar
    30    18     9   ar
    31    17    12   ar
    32    22    20    1
    33    33    34    1
    34    24    26    1
    35    24    27    1
    36     6     7    1
    37     6     8    1
