@<TRIPOS>MOLECULE
*****
 41 46 0 0 0
SMALL
GASTEIGER

@<TRIPOS>ATOM
      1 C         141.5938  138.5744  163.1358 C.3     1  UNL1        0.0955
      2 C         142.1209  139.0834  161.8271 C.3     1  UNL1        0.0287
      3 C         143.4465  139.7832  161.7735 C.3     1  UNL1        0.0193
      4 C         144.2452  139.9739  163.0288 C.3     1  UNL1        0.0700
      5 C         143.7181  139.4649  164.3377 C.3     1  UNL1        0.0193
      6 C         142.3924  138.7651  164.3912 C.3     1  UNL1        0.0287
      7 C         143.5241  139.5844  163.1080 C.3     1  UNL1        0.1562
      8 O         142.3254  138.9516  163.1564 O.3     1  UNL1       -0.3571
      9 N         145.5708  140.6737  162.9753 N.3     1  UNL1       -0.2926
     10 H         145.9312  140.5499  162.0292 H       1  UNL1        0.1236
     11 C         145.6584  142.1390  163.2837 C.3     1  UNL1        0.1152
     12 C         144.4424  143.0073  163.1516 C.ar    1  UNL1        0.0765
     13 C         143.8023  143.5926  164.3754 C.ar    1  UNL1        0.0193
     14 C         142.5863  144.4608  164.2433 C.ar    1  UNL1        0.0411
     15 C         142.0104  144.7437  162.8875 C.ar    1  UNL1        0.1708
     16 C         142.6505  144.1584  161.6638 C.ar    1  UNL1        0.1682
     17 N         143.8665  143.2902  161.7958 N.ar    1  UNL1       -0.2304
     18 N         142.0746  144.4413  160.3079 N.am    1  UNL1       -0.2639
     19 C         140.8586  145.3096  160.1758 C.2     1  UNL1        0.2718
     20 O         140.2827  145.5925  158.8200 O.2     1  UNL1       -0.2707
     21 C         140.2184  145.8949  161.3997 C.3     1  UNL1        0.2898
     22 O         140.7943  145.6120  162.7555 O.3     1  UNL1       -0.4628
     23 H         142.4947  144.0571  159.5047 H       1  UNL1        0.1565
     24 C         140.2681  137.8746  163.1894 C.3     1  UNL1        0.0584
     25 C         139.3316  138.1286  164.3332 C.3     1  UNL1        0.1129
     26 C         138.3951  138.3826  165.4770 C.3     1  UNL1        0.0341
     27 O         139.9342  136.9771  165.0822 O.3     1  UNL1       -0.3825
     28 H         139.4931  136.8837  165.9410 H       1  UNL1        0.2107
     29 C         139.8437  142.3270  165.8698 C.ar    1  UNL1        0.2250
     30 C         139.2411  143.4785  165.1208 C.ar    1  UNL1        0.0593
     31 C         138.4679  143.2305  163.8596 C.ar    1  UNL1        0.0254
     32 C         138.2972  141.8310  163.3474 C.ar    1  UNL1        0.0991
     33 N         137.5239  141.5831  162.0862 N.ar    1  UNL1       -0.2400
     34 C         137.3532  140.1836  161.5740 C.ar    1  UNL1        0.1282
     35 C         137.9558  139.0321  162.3230 C.ar    1  UNL1        0.1588
     36 F         137.7851  137.6326  161.8108 F       1  UNL1       -0.2027
     37 C         138.7290  139.2801  163.5842 C.ar    1  UNL1        0.0500
     38 C         138.8997  140.6796  164.0964 C.ar    1  UNL1        0.1023
     39 N         139.6730  140.9276  165.3576 N.ar    1  UNL1       -0.2103
     40 C         140.4024  141.6961  168.3273 C.3     1  UNL1        0.2542
     41 O         140.6169  142.5750  167.1309 O.3     1  UNL1       -0.4561
@<TRIPOS>BOND
     1    40    41    1
     2    41    29    1
     3    29    30   ar
     4    30    31   ar
     5    31    32   ar
     6    32    33   ar
     7    33    34   ar
     8    34    35   ar
     9    35    36    1
    10    35    37   ar
    11    37    25    1
    12    25    26    1
    13    25    27    1
    14    25    24    1
    15    24     1    1
    16     1     2    1
    17     2     3    1
    18     3     4    1
    19     4     9    1
    20     9    11    1
    21    11    12    1
    22    12    13   ar
    23    13    14   ar
    24    14    15   ar
    25    15    16   ar
    26    16    17   ar
    27    16    18    1
    28    18    19   am
    29    19    20    2
    30    19    21    1
    31    21    22    1
    32     4     5    1
    33     5     6    1
    34     4     7    1
    35     7     8    1
    36    37    38   ar
    37    38    39   ar
    38    39    29   ar
    39    38    32   ar
    40     6     1    1
    41     8     1    1
    42    17    12   ar
    43    22    15    1
    44    27    28    1
    45     9    10    1
    46    18    23    1
@<TRIPOS>MOLECULE
*****
 41 46 0 0 0
SMALL
GASTEIGER

@<TRIPOS>ATOM
      1 C         141.4973  138.3623  162.8728 C.3     1  UNL1        0.0955
      2 C         142.2893  138.6216  164.1199 C.3     1  UNL1        0.0287
      3 C         143.5611  139.4138  164.0496 C.3     1  UNL1        0.0193
      4 C         144.0408  139.9468  162.7321 C.3     1  UNL1        0.0700
      5 C         143.2487  139.6875  161.4849 C.3     1  UNL1        0.0193
      6 C         141.9769  138.8953  161.5553 C.3     1  UNL1        0.0287
      7 C         143.3380  139.5181  162.7208 C.3     1  UNL1        0.1562
      8 O         142.1880  138.8017  162.7844 O.3     1  UNL1       -0.3571
      9 N         145.3126  140.7390  162.6617 N.3     1  UNL1       -0.2926
     10 H         145.5818  140.7771  161.6786 H       1  UNL1        0.1236
     11 C         145.3479  142.1479  163.1752 C.3     1  UNL1        0.1152
     12 C         144.1410  143.0276  163.0355 C.ar    1  UNL1        0.0765
     13 C         143.4525  143.5561  164.2589 C.ar    1  UNL1        0.0193
     14 C         142.2456  144.4358  164.1192 C.ar    1  UNL1        0.0411
     15 C         141.7271  144.7869  162.7562 C.ar    1  UNL1        0.1708
     16 C         142.4155  144.2584  161.5328 C.ar    1  UNL1        0.1682
     17 N         143.6225  143.3787  161.6725 N.ar    1  UNL1       -0.2304
     18 N         141.8970  144.6095  160.1697 N.am    1  UNL1       -0.2639
     19 C         140.6901  145.4891  160.0301 C.2     1  UNL1        0.2718
     20 O         140.1716  145.8402  158.6671 O.2     1  UNL1       -0.2707
     21 C         140.0017  146.0177  161.2535 C.3     1  UNL1        0.2898
     22 O         140.5202  145.6666  162.6166 O.3     1  UNL1       -0.4628
     23 H         142.3489  144.2625  159.3668 H       1  UNL1        0.1565
     24 C         140.2255  137.5701  162.9432 C.3     1  UNL1        0.0584
     25 C         138.9675  138.1155  162.3350 C.3     1  UNL1        0.1129
     26 C         137.7095  138.6609  161.7268 C.3     1  UNL1        0.0341
     27 O         139.2150  137.3056  161.0969 O.3     1  UNL1       -0.3825
     28 H         138.5014  137.4635  160.4592 H       1  UNL1        0.2107
     29 C         138.2494  142.5465  162.0190 C.ar    1  UNL1        0.2250
     30 C         138.0019  143.3564  163.2570 C.ar    1  UNL1        0.0593
     31 C         137.9938  142.6892  164.6005 C.ar    1  UNL1        0.0254
     32 C         138.2332  141.2122  164.7058 C.ar    1  UNL1        0.0991
     33 N         138.2250  140.5451  166.0493 N.ar    1  UNL1       -0.2400
     34 C         138.4644  139.0681  166.1546 C.ar    1  UNL1        0.1282
     35 C         138.7119  138.2581  164.9165 C.ar    1  UNL1        0.1588
     36 F         138.9512  136.7811  165.0219 F       1  UNL1       -0.2027
     37 C         138.7200  138.9253  163.5731 C.ar    1  UNL1        0.0500
     38 C         138.4806  140.4024  163.4678 C.ar    1  UNL1        0.1023
     39 N         138.4888  141.0696  162.1243 N.ar    1  UNL1       -0.2103
     40 C         138.5915  142.4212  159.4466 C.3     1  UNL1        0.2542
     41 O         138.2576  143.2137  160.6755 O.3     1  UNL1       -0.4561
@<TRIPOS>BOND
     1    40    41    1
     2    41    29    1
     3    29    30   ar
     4    30    31   ar
     5    31    32   ar
     6    32    33   ar
     7    33    34   ar
     8    34    35   ar
     9    35    36    1
    10    35    37   ar
    11    37    25    1
    12    25    26    1
    13    25    27    1
    14    25    24    1
    15    24     1    1
    16     1     2    1
    17     2     3    1
    18     3     4    1
    19     4     9    1
    20     9    11    1
    21    11    12    1
    22    12    13   ar
    23    13    14   ar
    24    14    15   ar
    25    15    16   ar
    26    16    17   ar
    27    16    18    1
    28    18    19   am
    29    19    20    2
    30    19    21    1
    31    21    22    1
    32     4     5    1
    33     5     6    1
    34     4     7    1
    35     7     8    1
    36    37    38   ar
    37    38    39   ar
    38    39    29   ar
    39    38    32   ar
    40     6     1    1
    41     8     1    1
    42    17    12   ar
    43    22    15    1
    44    27    28    1
    45     9    10    1
    46    18    23    1
@<TRIPOS>MOLECULE
*****
 41 46 0 0 0
SMALL
GASTEIGER

@<TRIPOS>ATOM
      1 C         138.2133  141.6822  164.3151 C.3     1  UNL1        0.0955
      2 C         137.8979  141.7095  162.8490 C.3     1  UNL1        0.0287
      3 C         138.0474  142.9845  162.0732 C.3     1  UNL1        0.0193
      4 C         138.5125  144.2323  162.7636 C.3     1  UNL1        0.0700
      5 C         138.8280  144.2051  164.2299 C.3     1  UNL1        0.0193
      6 C         138.6784  142.9300  165.0056 C.3     1  UNL1        0.0287
      7 C         138.4457  143.5575  163.2305 C.3     1  UNL1        0.1562
      8 O         138.3104  142.4046  163.9320 O.3     1  UNL1       -0.3571
      9 N         138.6620  145.5074  161.9879 N.3     1  UNL1       -0.2926
     10 H         138.2830  146.2533  162.5714 H       1  UNL1        0.1236
     11 C         140.0207  145.9571  161.5388 C.3     1  UNL1        0.1152
     12 C         140.8663  145.0555  160.6890 C.ar    1  UNL1        0.0765
     13 C         141.1385  145.4120  159.2577 C.ar    1  UNL1        0.0193
     14 C         141.9840  144.5104  158.4079 C.ar    1  UNL1        0.0411
     15 C         142.5574  143.2522  158.9895 C.ar    1  UNL1        0.1708
     16 C         142.2852  142.8957  160.4208 C.ar    1  UNL1        0.1682
     17 N         141.4396  143.7973  161.2706 N.ar    1  UNL1       -0.2304
     18 N         142.8586  141.6375  161.0025 N.am    1  UNL1       -0.2639
     19 C         143.7041  140.7358  160.1527 C.2     1  UNL1        0.2718
     20 O         144.2775  139.4777  160.7343 O.2     1  UNL1       -0.2707
     21 C         143.9763  141.0924  158.7213 C.3     1  UNL1        0.2898
     22 O         143.4029  142.3506  158.1397 O.3     1  UNL1       -0.4628
     23 H         142.6799  141.4035  161.9419 H       1  UNL1        0.1565
     24 C         138.0637  140.4071  165.0909 C.3     1  UNL1        0.0584
     25 C         139.1552  139.3787  165.0611 C.3     1  UNL1        0.1129
     26 C         140.2467  138.3502  165.0314 C.3     1  UNL1        0.0341
     27 O         138.6097  138.8370  163.7730 O.3     1  UNL1       -0.3825
     28 H         139.1576  138.0932  163.4773 H       1  UNL1        0.2107
     29 C         142.9251  141.8359  165.0514 C.ar    1  UNL1        0.2250
     30 C         143.4705  142.3776  166.3395 C.ar    1  UNL1        0.0593
     31 C         142.7594  142.1002  167.6307 C.ar    1  UNL1        0.0254
     32 C         141.5028  141.2811  167.6340 C.ar    1  UNL1        0.0991
     33 N         140.7917  141.0037  168.9252 N.ar    1  UNL1       -0.2400
     34 C         139.5351  140.1847  168.9285 C.ar    1  UNL1        0.1282
     35 C         138.9895  139.6429  167.6404 C.ar    1  UNL1        0.1588
     36 F         137.7330  138.8239  167.6436 F       1  UNL1       -0.2027
     37 C         139.7007  139.9203  166.3491 C.ar    1  UNL1        0.0500
     38 C         140.9574  140.7394  166.3459 C.ar    1  UNL1        0.1023
     39 N         141.6685  141.0168  165.0547 N.ar    1  UNL1       -0.2103
     40 C         145.1350  142.1615  163.7247 C.3     1  UNL1        0.2542
     41 O         143.6362  142.1133  163.7602 O.3     1  UNL1       -0.4561
@<TRIPOS>BOND
     1    40    41    1
     2    41    29    1
     3    29    30   ar
     4    30    31   ar
     5    31    32   ar
     6    32    33   ar
     7    33    34   ar
     8    34    35   ar
     9    35    36    1
    10    35    37   ar
    11    37    25    1
    12    25    26    1
    13    25    27    1
    14    25    24    1
    15    24     1    1
    16     1     2    1
    17     2     3    1
    18     3     4    1
    19     4     9    1
    20     9    11    1
    21    11    12    1
    22    12    13   ar
    23    13    14   ar
    24    14    15   ar
    25    15    16   ar
    26    16    17   ar
    27    16    18    1
    28    18    19   am
    29    19    20    2
    30    19    21    1
    31    21    22    1
    32     4     5    1
    33     5     6    1
    34     4     7    1
    35     7     8    1
    36    37    38   ar
    37    38    39   ar
    38    39    29   ar
    39    38    32   ar
    40     6     1    1
    41     8     1    1
    42    17    12   ar
    43    22    15    1
    44    27    28    1
    45     9    10    1
    46    18    23    1
@<TRIPOS>MOLECULE
*****
 41 46 0 0 0
SMALL
GASTEIGER

@<TRIPOS>ATOM
      1 C         141.8261  140.2886  165.6910 C.3     1  UNL1        0.0955
      2 C         142.5907  140.3791  164.4038 C.3     1  UNL1        0.0287
      3 C         143.4816  141.5571  164.1419 C.3     1  UNL1        0.0193
      4 C         143.6079  142.6445  165.1673 C.3     1  UNL1        0.0700
      5 C         142.8433  142.5540  166.4546 C.3     1  UNL1        0.0193
      6 C         141.9524  141.3761  166.7165 C.3     1  UNL1        0.0287
      7 C         143.1074  142.0185  165.3557 C.3     1  UNL1        0.1562
      8 O         142.3018  140.9534  165.5925 O.3     1  UNL1       -0.3571
      9 N         144.4989  143.8225  164.9054 N.3     1  UNL1       -0.2926
     10 H         145.2258  143.5051  164.2642 H       1  UNL1        0.1236
     11 C         143.9267  145.0807  164.3227 C.3     1  UNL1        0.1152
     12 C         142.8769  145.0026  163.2541 C.ar    1  UNL1        0.0765
     13 C         141.4829  145.4793  163.5360 C.ar    1  UNL1        0.0193
     14 C         140.4331  145.4012  162.4674 C.ar    1  UNL1        0.0411
     15 C         140.7773  144.8464  161.1170 C.ar    1  UNL1        0.1708
     16 C         142.1713  144.3697  160.8351 C.ar    1  UNL1        0.1682
     17 N         143.2211  144.4478  161.9037 N.ar    1  UNL1       -0.2304
     18 N         142.5156  143.8148  159.4847 N.am    1  UNL1       -0.2639
     19 C         141.4658  143.7367  158.4161 C.2     1  UNL1        0.2718
     20 O         141.8100  143.1819  157.0657 O.2     1  UNL1       -0.2707
     21 C         140.0717  144.2134  158.6980 C.3     1  UNL1        0.2898
     22 O         139.7275  144.7683  160.0484 O.3     1  UNL1       -0.4628
     23 H         143.4305  143.5019  159.2997 H       1  UNL1        0.1565
     24 C         140.9352  139.1106  165.9529 C.3     1  UNL1        0.0584
     25 C         139.4597  139.3115  166.1330 C.3     1  UNL1        0.1129
     26 C         137.9842  139.5125  166.3130 C.3     1  UNL1        0.0341
     27 O         139.6518  139.3913  167.6185 O.3     1  UNL1       -0.3825
     28 H         138.7936  139.5310  168.0485 H       1  UNL1        0.2107
     29 C         137.9809  142.9024  163.8596 C.ar    1  UNL1        0.2250
     30 C         137.7888  142.8227  162.3741 C.ar    1  UNL1        0.0593
     31 C         138.0896  141.5460  161.6464 C.ar    1  UNL1        0.0254
     32 C         138.5825  140.3490  162.4042 C.ar    1  UNL1        0.0991
     33 N         138.8833  139.0723  161.6765 N.ar    1  UNL1       -0.2400
     34 C         139.3762  137.8754  162.4342 C.ar    1  UNL1        0.1282
     35 C         139.5684  137.9551  163.9198 C.ar    1  UNL1        0.1588
     36 F         140.0613  136.7581  164.6776 F       1  UNL1       -0.2027
     37 C         139.2675  139.2318  164.6475 C.ar    1  UNL1        0.0500
     38 C         138.7746  140.4288  163.8896 C.ar    1  UNL1        0.1023
     39 N         138.4738  141.7055  164.6173 N.ar    1  UNL1       -0.2103
     40 C         138.6587  144.7215  165.5863 C.3     1  UNL1        0.2542
     41 O         137.6801  144.1791  164.5873 O.3     1  UNL1       -0.4561
@<TRIPOS>BOND
     1    40    41    1
     2    41    29    1
     3    29    30   ar
     4    30    31   ar
     5    31    32   ar
     6    32    33   ar
     7    33    34   ar
     8    34    35   ar
     9    35    36    1
    10    35    37   ar
    11    37    25    1
    12    25    26    1
    13    25    27    1
    14    25    24    1
    15    24     1    1
    16     1     2    1
    17     2     3    1
    18     3     4    1
    19     4     9    1
    20     9    11    1
    21    11    12    1
    22    12    13   ar
    23    13    14   ar
    24    14    15   ar
    25    15    16   ar
    26    16    17   ar
    27    16    18    1
    28    18    19   am
    29    19    20    2
    30    19    21    1
    31    21    22    1
    32     4     5    1
    33     5     6    1
    34     4     7    1
    35     7     8    1
    36    37    38   ar
    37    38    39   ar
    38    39    29   ar
    39    38    32   ar
    40     6     1    1
    41     8     1    1
    42    17    12   ar
    43    22    15    1
    44    27    28    1
    45     9    10    1
    46    18    23    1
@<TRIPOS>MOLECULE
*****
 41 46 0 0 0
SMALL
GASTEIGER

@<TRIPOS>ATOM
      1 C         138.0667  141.1322  163.5135 C.3     1  UNL1        0.0955
      2 C         138.0254  142.2100  164.5558 C.3     1  UNL1        0.0287
      3 C         138.0880  143.6518  164.1467 C.3     1  UNL1        0.0193
      4 C         138.1919  144.0158  162.6953 C.3     1  UNL1        0.0700
      5 C         138.2331  142.9379  161.6529 C.3     1  UNL1        0.0193
      6 C         138.1705  141.4961  162.0620 C.3     1  UNL1        0.0287
      7 C         138.1604  143.2120  162.8710 C.3     1  UNL1        0.1562
      8 O         138.1038  141.9083  163.2409 O.3     1  UNL1       -0.3571
      9 N         138.2545  145.4575  162.2862 N.3     1  UNL1       -0.2926
     10 H         137.6469  145.9713  162.9244 H       1  UNL1        0.1236
     11 C         139.5711  146.1758  162.2693 C.3     1  UNL1        0.1152
     12 C         140.8512  145.3948  162.2324 C.ar    1  UNL1        0.0765
     13 C         141.6694  145.2365  163.4796 C.ar    1  UNL1        0.0193
     14 C         142.9495  144.4555  163.4428 C.ar    1  UNL1        0.0411
     15 C         143.4113  143.8326  162.1588 C.ar    1  UNL1        0.1708
     16 C         142.5932  143.9909  160.9116 C.ar    1  UNL1        0.1682
     17 N         141.3131  144.7720  160.9484 N.ar    1  UNL1       -0.2304
     18 N         143.0550  143.3681  159.6275 N.am    1  UNL1       -0.2639
     19 C         144.3351  142.5870  159.5906 C.2     1  UNL1        0.2718
     20 O         144.7970  141.9642  158.3066 O.2     1  UNL1       -0.2707
     21 C         145.1533  142.4288  160.8379 C.3     1  UNL1        0.2898
     22 O         144.6914  143.0516  162.1219 O.3     1  UNL1       -0.4628
     23 H         142.5180  143.4720  158.8089 H       1  UNL1        0.1565
     24 C         138.0041  139.6904  163.9226 C.3     1  UNL1        0.0584
     25 C         138.7441  139.2237  165.1410 C.3     1  UNL1        0.1129
     26 C         139.4841  138.7570  166.3594 C.3     1  UNL1        0.0341
     27 O         137.5522  139.5519  165.9906 O.3     1  UNL1       -0.3825
     28 H         137.7464  139.3381  166.9166 H       1  UNL1        0.2107
     29 C         142.6074  141.4557  165.7263 C.ar    1  UNL1        0.2250
     30 C         143.7993  141.1276  164.8767 C.ar    1  UNL1        0.0593
     31 C         143.7033  140.0555  163.8320 C.ar    1  UNL1        0.0254
     32 C         142.4156  139.3115  163.6369 C.ar    1  UNL1        0.0991
     33 N         142.3197  138.2394  162.5922 N.ar    1  UNL1       -0.2400
     34 C         141.0319  137.4954  162.3971 C.ar    1  UNL1        0.1282
     35 C         139.8400  137.8235  163.2467 C.ar    1  UNL1        0.1588
     36 F         138.5522  137.0795  163.0516 F       1  UNL1       -0.2027
     37 C         139.9359  138.8956  164.2914 C.ar    1  UNL1        0.0500
     38 C         141.2238  139.6396  164.4865 C.ar    1  UNL1        0.1023
     39 N         141.3197  140.7117  165.5312 N.ar    1  UNL1       -0.2103
     40 C         142.4813  142.1896  168.2154 C.3     1  UNL1        0.2542
     41 O         142.7034  142.5278  166.7710 O.3     1  UNL1       -0.4561
@<TRIPOS>BOND
     1    40    41    1
     2    41    29    1
     3    29    30   ar
     4    30    31   ar
     5    31    32   ar
     6    32    33   ar
     7    33    34   ar
     8    34    35   ar
     9    35    36    1
    10    35    37   ar
    11    37    25    1
    12    25    26    1
    13    25    27    1
    14    25    24    1
    15    24     1    1
    16     1     2    1
    17     2     3    1
    18     3     4    1
    19     4     9    1
    20     9    11    1
    21    11    12    1
    22    12    13   ar
    23    13    14   ar
    24    14    15   ar
    25    15    16   ar
    26    16    17   ar
    27    16    18    1
    28    18    19   am
    29    19    20    2
    30    19    21    1
    31    21    22    1
    32     4     5    1
    33     5     6    1
    34     4     7    1
    35     7     8    1
    36    37    38   ar
    37    38    39   ar
    38    39    29   ar
    39    38    32   ar
    40     6     1    1
    41     8     1    1
    42    17    12   ar
    43    22    15    1
    44    27    28    1
    45     9    10    1
    46    18    23    1
@<TRIPOS>MOLECULE
*****
 41 46 0 0 0
SMALL
GASTEIGER

@<TRIPOS>ATOM
      1 C         142.2320  142.1939  165.2944 C.3     1  UNL1        0.0955
      2 C         142.1935  142.9970  164.0281 C.3     1  UNL1        0.0287
      3 C         141.0086  143.8660  163.7269 C.3     1  UNL1        0.0193
      4 C         139.8622  143.9319  164.6919 C.3     1  UNL1        0.0700
      5 C         139.9007  143.1288  165.9583 C.3     1  UNL1        0.0193
      6 C         141.0856  142.2598  166.2595 C.3     1  UNL1        0.0287
      7 C         140.4898  143.4415  164.9003 C.3     1  UNL1        0.1562
      8 O         141.5612  142.6557  165.1727 O.3     1  UNL1       -0.3571
      9 N         138.6773  144.8010  164.3907 N.3     1  UNL1       -0.2926
     10 H         139.0261  145.6027  163.8653 H       1  UNL1        0.1236
     11 C         137.5183  144.2468  163.6163 C.3     1  UNL1        0.1152
     12 C         137.7255  143.0958  162.6771 C.ar    1  UNL1        0.0765
     13 C         137.4233  141.6971  163.1267 C.ar    1  UNL1        0.0193
     14 C         137.6305  140.5460  162.1875 C.ar    1  UNL1        0.0411
     15 C         138.1399  140.7937  160.7986 C.ar    1  UNL1        0.1708
     16 C         138.4421  142.1924  160.3489 C.ar    1  UNL1        0.1682
     17 N         138.2349  143.3434  161.2881 N.ar    1  UNL1       -0.2304
     18 N         138.9515  142.4401  158.9599 N.am    1  UNL1       -0.2639
     19 C         139.1587  141.2891  158.0207 C.2     1  UNL1        0.2718
     20 O         139.6681  141.5367  156.6318 O.2     1  UNL1       -0.2707
     21 C         138.8565  139.8903  158.4704 C.3     1  UNL1        0.2898
     22 O         138.3471  139.6427  159.8594 O.3     1  UNL1       -0.4628
     23 H         139.1499  143.3582  158.6648 H       1  UNL1        0.1565
     24 C         143.4170  141.3249  165.5956 C.3     1  UNL1        0.0584
     25 C         143.2147  139.9516  166.1641 C.3     1  UNL1        0.1129
     26 C         143.0125  138.5784  166.7326 C.3     1  UNL1        0.0341
     27 O         143.3222  140.5104  167.5521 O.3     1  UNL1       -0.3825
     28 H         143.2221  139.7936  168.1979 H       1  UNL1        0.2107
     29 C         139.3225  138.1992  164.7394 C.ar    1  UNL1        0.2250
     30 C         139.2150  137.6405  163.3516 C.ar    1  UNL1        0.0593
     31 C         140.4049  137.6659  162.4386 C.ar    1  UNL1        0.0254
     32 C         141.7023  138.2500  162.9134 C.ar    1  UNL1        0.0991
     33 N         142.8922  138.2754  162.0005 N.ar    1  UNL1       -0.2400
     34 C         144.1895  138.8595  162.4753 C.ar    1  UNL1        0.1282
     35 C         144.2971  139.4183  163.8633 C.ar    1  UNL1        0.1588
     36 F         145.5945  140.0024  164.3382 F       1  UNL1       -0.2027
     37 C         143.1072  139.3929  164.7763 C.ar    1  UNL1        0.0500
     38 C         141.8098  138.8087  164.3013 C.ar    1  UNL1        0.1023
     39 N         140.6199  138.7833  165.2143 N.ar    1  UNL1       -0.2103
     40 C         138.1024  139.0498  166.8696 C.3     1  UNL1        0.2542
     41 O         138.1326  138.1738  165.6524 O.3     1  UNL1       -0.4561
@<TRIPOS>BOND
     1    40    41    1
     2    41    29    1
     3    29    30   ar
     4    30    31   ar
     5    31    32   ar
     6    32    33   ar
     7    33    34   ar
     8    34    35   ar
     9    35    36    1
    10    35    37   ar
    11    37    25    1
    12    25    26    1
    13    25    27    1
    14    25    24    1
    15    24     1    1
    16     1     2    1
    17     2     3    1
    18     3     4    1
    19     4     9    1
    20     9    11    1
    21    11    12    1
    22    12    13   ar
    23    13    14   ar
    24    14    15   ar
    25    15    16   ar
    26    16    17   ar
    27    16    18    1
    28    18    19   am
    29    19    20    2
    30    19    21    1
    31    21    22    1
    32     4     5    1
    33     5     6    1
    34     4     7    1
    35     7     8    1
    36    37    38   ar
    37    38    39   ar
    38    39    29   ar
    39    38    32   ar
    40     6     1    1
    41     8     1    1
    42    17    12   ar
    43    22    15    1
    44    27    28    1
    45     9    10    1
    46    18    23    1
@<TRIPOS>MOLECULE
*****
 41 46 0 0 0
SMALL
GASTEIGER

@<TRIPOS>ATOM
      1 C         142.3118  143.3058  165.1894 C.3     1  UNL1        0.0955
      2 C         140.8369  143.5049  165.0022 C.3     1  UNL1        0.0287
      3 C         140.3350  144.4425  163.9444 C.3     1  UNL1        0.0193
      4 C         141.3079  145.1808  163.0736 C.3     1  UNL1        0.0700
      5 C         142.7829  144.9816  163.2607 C.3     1  UNL1        0.0193
      6 C         143.2848  144.0441  164.3186 C.3     1  UNL1        0.0287
      7 C         141.6305  144.6776  163.6399 C.3     1  UNL1        0.1562
      8 O         142.0843  143.8299  164.5964 O.3     1  UNL1       -0.3571
      9 N         140.8060  146.1183  162.0157 N.3     1  UNL1       -0.2926
     10 H         141.5471  146.7992  161.8500 H       1  UNL1        0.1236
     11 C         140.3988  145.5861  160.6738 C.3     1  UNL1        0.1152
     12 C         141.0217  144.3280  160.1455 C.ar    1  UNL1        0.0765
     13 C         140.3387  143.0087  160.3527 C.ar    1  UNL1        0.0193
     14 C         140.9616  141.7505  159.8244 C.ar    1  UNL1        0.0411
     15 C         142.2674  141.8117  159.0889 C.ar    1  UNL1        0.1708
     16 C         142.9504  143.1310  158.8817 C.ar    1  UNL1        0.1682
     17 N         142.3275  144.3891  159.4100 N.ar    1  UNL1       -0.2304
     18 N         144.2563  143.1922  158.1461 N.am    1  UNL1       -0.2639
     19 C         144.8792  141.9341  157.6178 C.2     1  UNL1        0.2718
     20 O         146.1850  141.9952  156.8823 O.2     1  UNL1       -0.2707
     21 C         144.1962  140.6147  157.8251 C.3     1  UNL1        0.2898
     22 O         142.8903  140.5535  158.5605 O.3     1  UNL1       -0.4628
     23 H         144.7046  144.0581  158.0102 H       1  UNL1        0.1565
     24 C         142.8137  142.3682  166.2472 C.3     1  UNL1        0.0584
     25 C         143.0920  140.9340  165.9076 C.3     1  UNL1        0.1129
     26 C         143.3703  139.4997  165.5679 C.3     1  UNL1        0.0341
     27 O         144.2677  141.3585  165.0783 O.3     1  UNL1       -0.3825
     28 H         144.6908  140.5756  164.6925 H       1  UNL1        0.2107
     29 C         139.2128  139.8293  163.9122 C.ar    1  UNL1        0.2250
     30 C         138.0372  139.4049  164.7414 C.ar    1  UNL1        0.0593
     31 C         138.1546  139.3486  166.2357 C.ar    1  UNL1        0.0254
     32 C         139.4476  139.7168  166.9009 C.ar    1  UNL1        0.0991
     33 N         139.5650  139.6605  168.3952 N.ar    1  UNL1       -0.2400
     34 C         140.8580  140.0287  169.0603 C.ar    1  UNL1        0.1282
     35 C         142.0338  140.4532  168.2311 C.ar    1  UNL1        0.1588
     36 F         143.3268  140.8214  168.8963 F       1  UNL1       -0.2027
     37 C         141.9164  140.5095  166.7368 C.ar    1  UNL1        0.0500
     38 C         140.6232  140.1413  166.0717 C.ar    1  UNL1        0.1023
     39 N         140.5059  140.1975  164.5773 N.ar    1  UNL1       -0.2103
     40 C         137.7736  140.1961  161.7806 C.3     1  UNL1        0.2542
     41 O         139.0954  139.8856  162.4179 O.3     1  UNL1       -0.4561
@<TRIPOS>BOND
     1    40    41    1
     2    41    29    1
     3    29    30   ar
     4    30    31   ar
     5    31    32   ar
     6    32    33   ar
     7    33    34   ar
     8    34    35   ar
     9    35    36    1
    10    35    37   ar
    11    37    25    1
    12    25    26    1
    13    25    27    1
    14    25    24    1
    15    24     1    1
    16     1     2    1
    17     2     3    1
    18     3     4    1
    19     4     9    1
    20     9    11    1
    21    11    12    1
    22    12    13   ar
    23    13    14   ar
    24    14    15   ar
    25    15    16   ar
    26    16    17   ar
    27    16    18    1
    28    18    19   am
    29    19    20    2
    30    19    21    1
    31    21    22    1
    32     4     5    1
    33     5     6    1
    34     4     7    1
    35     7     8    1
    36    37    38   ar
    37    38    39   ar
    38    39    29   ar
    39    38    32   ar
    40     6     1    1
    41     8     1    1
    42    17    12   ar
    43    22    15    1
    44    27    28    1
    45     9    10    1
    46    18    23    1
@<TRIPOS>MOLECULE
*****
 41 46 0 0 0
SMALL
GASTEIGER

@<TRIPOS>ATOM
      1 C         141.4140  138.4923  164.5811 C.3     1  UNL1        0.0955
      2 C         141.6545  138.3513  163.1073 C.3     1  UNL1        0.0287
      3 C         140.4973  138.1488  162.1746 C.3     1  UNL1        0.0193
      4 C         139.0997  138.0874  162.7157 C.3     1  UNL1        0.0700
      5 C         138.8592  138.2284  164.1896 C.3     1  UNL1        0.0193
      6 C         140.0164  138.4308  165.1223 C.3     1  UNL1        0.0287
      7 C         139.7018  138.1999  163.2659 C.3     1  UNL1        0.1562
      8 O         140.7482  138.3829  164.1092 O.3     1  UNL1       -0.3571
      9 N         137.9425  137.8850  161.7830 N.3     1  UNL1       -0.2926
     10 H         137.1999  137.4450  162.3263 H       1  UNL1        0.1236
     11 C         137.3285  139.0612  161.0833 C.3     1  UNL1        0.1152
     12 C         137.7532  140.4539  161.4440 C.ar    1  UNL1        0.0765
     13 C         137.1995  141.1123  162.6727 C.ar    1  UNL1        0.0193
     14 C         137.6242  142.5050  163.0334 C.ar    1  UNL1        0.0411
     15 C         138.6025  143.2393  162.1652 C.ar    1  UNL1        0.1708
     16 C         139.1562  142.5808  160.9365 C.ar    1  UNL1        0.1682
     17 N         138.7315  141.1882  160.5758 N.ar    1  UNL1       -0.2304
     18 N         140.1346  143.3151  160.0683 N.am    1  UNL1       -0.2639
     19 C         140.5592  144.7078  160.4289 C.2     1  UNL1        0.2718
     20 O         141.5375  145.4421  159.5608 O.2     1  UNL1       -0.2707
     21 C         140.0055  145.3662  161.6578 C.3     1  UNL1        0.2898
     22 O         139.0272  144.6320  162.5259 O.3     1  UNL1       -0.4628
     23 H         140.4979  142.8830  159.2618 H       1  UNL1        0.1565
     24 C         142.5712  138.6947  165.5139 C.3     1  UNL1        0.0584
     25 C         143.4914  139.8640  165.3246 C.3     1  UNL1        0.1129
     26 C         144.4116  141.0334  165.1354 C.3     1  UNL1        0.0341
     27 O         144.5414  138.9478  164.7694 O.3     1  UNL1       -0.3825
     28 H         145.3288  139.4633  164.5343 H       1  UNL1        0.2107
     29 C         142.6511  139.9057  169.7453 C.ar    1  UNL1        0.2250
     30 C         141.6012  140.8218  170.3005 C.ar    1  UNL1        0.0593
     31 C         140.8313  141.7240  169.3822 C.ar    1  UNL1        0.0254
     32 C         141.1113  141.7101  167.9086 C.ar    1  UNL1        0.0991
     33 N         140.3414  142.6123  166.9903 N.ar    1  UNL1       -0.2400
     34 C         140.6215  142.5984  165.5168 C.ar    1  UNL1        0.1282
     35 C         141.6715  141.6823  164.9615 C.ar    1  UNL1        0.1588
     36 F         141.9516  141.6684  163.4880 F       1  UNL1       -0.2027
     37 C         142.4414  140.7801  165.8798 C.ar    1  UNL1        0.0500
     38 C         142.1613  140.7940  167.3534 C.ar    1  UNL1        0.1023
     39 N         142.9312  139.8918  168.2717 N.ar    1  UNL1       -0.2103
     40 C         143.3728  137.5171  170.4687 C.3     1  UNL1        0.2542
     41 O         143.4210  139.0035  170.6636 O.3     1  UNL1       -0.4561
@<TRIPOS>BOND
     1    40    41    1
     2    41    29    1
     3    29    30   ar
     4    30    31   ar
     5    31    32   ar
     6    32    33   ar
     7    33    34   ar
     8    34    35   ar
     9    35    36    1
    10    35    37   ar
    11    37    25    1
    12    25    26    1
    13    25    27    1
    14    25    24    1
    15    24     1    1
    16     1     2    1
    17     2     3    1
    18     3     4    1
    19     4     9    1
    20     9    11    1
    21    11    12    1
    22    12    13   ar
    23    13    14   ar
    24    14    15   ar
    25    15    16   ar
    26    16    17   ar
    27    16    18    1
    28    18    19   am
    29    19    20    2
    30    19    21    1
    31    21    22    1
    32     4     5    1
    33     5     6    1
    34     4     7    1
    35     7     8    1
    36    37    38   ar
    37    38    39   ar
    38    39    29   ar
    39    38    32   ar
    40     6     1    1
    41     8     1    1
    42    17    12   ar
    43    22    15    1
    44    27    28    1
    45     9    10    1
    46    18    23    1
@<TRIPOS>MOLECULE
*****
 41 46 0 0 0
SMALL
GASTEIGER

@<TRIPOS>ATOM
      1 C         139.8006  143.0962  165.1865 C.3     1  UNL1        0.0955
      2 C         138.6271  143.8378  164.6183 C.3     1  UNL1        0.0287
      3 C         138.8389  144.8784  163.5590 C.3     1  UNL1        0.0193
      4 C         140.2242  145.1775  163.0678 C.3     1  UNL1        0.0700
      5 C         141.3978  144.4359  163.6359 C.3     1  UNL1        0.0193
      6 C         141.1860  143.3953  164.6953 C.3     1  UNL1        0.0287
      7 C         140.1579  144.5988  163.6497 C.3     1  UNL1        0.1562
      8 O         139.9664  143.6578  164.6075 O.3     1  UNL1       -0.3571
      9 N         140.4360  146.2182  162.0085 N.3     1  UNL1       -0.2926
     10 H         141.3993  146.5405  162.1008 H       1  UNL1        0.1236
     11 C         140.2325  145.8700  160.5637 C.3     1  UNL1        0.1152
     12 C         140.8118  144.6024  160.0090 C.ar    1  UNL1        0.0765
     13 C         140.0273  143.3259  160.0786 C.ar    1  UNL1        0.0193
     14 C         140.6066  142.0583  159.5238 C.ar    1  UNL1        0.0411
     15 C         141.9704  142.0674  158.8994 C.ar    1  UNL1        0.1708
     16 C         142.7549  143.3439  158.8297 C.ar    1  UNL1        0.1682
     17 N         142.1756  144.6115  159.3845 N.ar    1  UNL1       -0.2304
     18 N         144.1187  143.3530  158.2053 N.am    1  UNL1       -0.2639
     19 C         144.6980  142.0855  157.6505 C.2     1  UNL1        0.2718
     20 O         146.0618  142.0945  157.0261 O.2     1  UNL1       -0.2707
     21 C         143.9134  140.8089  157.7202 C.3     1  UNL1        0.2898
     22 O         142.5497  140.7998  158.3446 O.3     1  UNL1       -0.4628
     23 H         144.6336  144.1909  158.1596 H       1  UNL1        0.1565
     24 C         139.5888  142.0555  166.2458 C.3     1  UNL1        0.0584
     25 C         139.2480  140.6476  165.8565 C.3     1  UNL1        0.1129
     26 C         138.9072  139.2397  165.4673 C.3     1  UNL1        0.0341
     27 O         138.0080  141.1378  165.1694 O.3     1  UNL1       -0.3825
     28 H         137.5329  140.3851  164.7839 H       1  UNL1        0.2107
     29 C         142.8944  139.5963  163.4382 C.ar    1  UNL1        0.2250
     30 C         144.1343  139.1061  164.1253 C.ar    1  UNL1        0.0593
     31 C         144.1589  138.9664  165.6186 C.ar    1  UNL1        0.0254
     32 C         142.9434  139.3169  166.4247 C.ar    1  UNL1        0.0991
     33 N         142.9680  139.1772  167.9180 N.ar    1  UNL1       -0.2400
     34 C         141.7525  139.5276  168.7241 C.ar    1  UNL1        0.1282
     35 C         140.5125  140.0178  168.0370 C.ar    1  UNL1        0.1588
     36 F         139.2971  140.3682  168.8431 F       1  UNL1       -0.2027
     37 C         140.4880  140.1575  166.5437 C.ar    1  UNL1        0.0500
     38 C         141.7035  139.8070  165.7376 C.ar    1  UNL1        0.1023
     39 N         141.6790  139.9467  164.2443 N.ar    1  UNL1       -0.2103
     40 C         143.9657  139.1327  161.1171 C.3     1  UNL1        0.2542
     41 O         142.8699  139.7360  161.9449 O.3     1  UNL1       -0.4561
@<TRIPOS>BOND
     1    40    41    1
     2    41    29    1
     3    29    30   ar
     4    30    31   ar
     5    31    32   ar
     6    32    33   ar
     7    33    34   ar
     8    34    35   ar
     9    35    36    1
    10    35    37   ar
    11    37    25    1
    12    25    26    1
    13    25    27    1
    14    25    24    1
    15    24     1    1
    16     1     2    1
    17     2     3    1
    18     3     4    1
    19     4     9    1
    20     9    11    1
    21    11    12    1
    22    12    13   ar
    23    13    14   ar
    24    14    15   ar
    25    15    16   ar
    26    16    17   ar
    27    16    18    1
    28    18    19   am
    29    19    20    2
    30    19    21    1
    31    21    22    1
    32     4     5    1
    33     5     6    1
    34     4     7    1
    35     7     8    1
    36    37    38   ar
    37    38    39   ar
    38    39    29   ar
    39    38    32   ar
    40     6     1    1
    41     8     1    1
    42    17    12   ar
    43    22    15    1
    44    27    28    1
    45     9    10    1
    46    18    23    1
