@<TRIPOS>MOLECULE
*****
 33 37 0 0 0
SMALL
GASTEIGER

@<TRIPOS>ATOM
      1 C         141.9355  143.8893  161.4030 C.ar    1  UNL1        0.1353
      2 C         141.6463  143.0011  162.5767 C.ar    1  UNL1        0.0346
      3 C         140.6284  143.4152  163.5978 C.ar    1  UNL1        0.0058
      4 C         139.8999  144.7175  163.4452 C.ar    1  UNL1        0.0208
      5 C         140.1891  145.6056  162.2715 C.ar    1  UNL1        0.1003
      6 N         141.2069  145.1916  161.2504 N.ar    1  UNL1       -0.2290
      7 C         144.0591  139.3178  155.4582 C.3     1  UNL1        0.0339
      8 C         144.3690  140.4274  156.4188 C.3     1  UNL1        0.1351
      9 C         143.3512  140.8416  157.4398 C.3     1  UNL1        0.1244
     10 N         143.6612  141.9512  158.4003 N.am    1  UNL1       -0.2590
     11 C         142.6433  142.3655  159.4215 C.2     1  UNL1        0.3089
     12 O         141.3157  141.6701  159.4820 O.2     1  UNL1       -0.2522
     13 N         142.9533  143.4751  160.3820 N.am    1  UNL1       -0.2535
     14 C         144.9888  142.6466  158.3398 C.3     1  UNL1        0.1244
     15 C         146.0066  142.2325  157.3188 C.3     1  UNL1        0.1351
     16 C         147.3343  142.9279  157.2583 C.3     1  UNL1        0.0339
     17 O         145.6967  141.1228  156.3583 O.3     1  UNL1       -0.3552
     18 H         143.8247  143.9315  160.3423 H       1  UNL1        0.1578
     19 C         140.3392  142.5271  164.7715 C.ar    1  UNL1        0.0188
     20 C         140.6246  142.8451  166.2093 C.ar    1  UNL1        0.0758
     21 N         140.1756  141.6795  167.0398 N.ar    1  UNL1       -0.3265
     22 C         139.6126  140.6411  166.1153 C.ar    1  UNL1        0.0793
     23 C         139.0210  139.2863  166.3688 C.ar    1  UNL1        0.1160
     24 N         138.5305  138.4552  165.2204 N.ar    1  UNL1       -0.2408
     25 C         138.6316  138.9791  163.8185 C.ar    1  UNL1        0.0990
     26 C         139.2232  140.3339  163.5650 C.ar    1  UNL1        0.0222
     27 C         139.7137  141.1649  164.7133 C.ar    1  UNL1        0.0203
     28 C         140.2724  141.5713  168.5328 C.3     1  UNL1        0.0906
     29 C         140.2005  142.8067  169.3806 C.3     1  UNL1        0.0547
     30 C         140.2974  142.6985  170.8735 C.3     1  UNL1        0.1441
     31 O         140.4662  141.3549  171.5187 O.3     1  UNL1       -0.3536
     32 C         140.5381  140.1195  170.6710 C.3     1  UNL1        0.1441
     33 C         140.4412  140.2278  169.1780 C.3     1  UNL1        0.0547
@<TRIPOS>BOND
     1     8     7    1
     2     8     9    1
     3     9    10    1
     4    10    11   am
     5    11    12    2
     6    11    13   am
     7    13     1    1
     8     1     2   ar
     9     2     3   ar
    10     3    19    1
    11    19    20   ar
    12    20    21   ar
    13    21    28    1
    14    28    29    1
    15    29    30    1
    16    30    31    1
    17    31    32    1
    18    32    33    1
    19    21    22   ar
    20    22    23   ar
    21    23    24   ar
    22    24    25   ar
    23    25    26   ar
    24    26    27   ar
    25     3     4   ar
    26     4     5   ar
    27     5     6   ar
    28    10    14    1
    29    14    15    1
    30    15    16    1
    31    15    17    1
    32    17     8    1
    33     6     1   ar
    34    27    19   ar
    35    33    28    1
    36    27    22   ar
    37    13    18    1
@<TRIPOS>MOLECULE
*****
 33 37 0 0 0
SMALL
GASTEIGER

@<TRIPOS>ATOM
      1 C         141.8675  142.9361  160.1311 C.ar    1  UNL1        0.1353
      2 C         141.3293  142.6655  161.5048 C.ar    1  UNL1        0.0346
      3 C         142.2649  142.2946  162.6172 C.ar    1  UNL1        0.0058
      4 C         143.7384  142.1944  162.3558 C.ar    1  UNL1        0.0208
      5 C         144.2766  142.4650  160.9821 C.ar    1  UNL1        0.1003
      6 N         143.3411  142.8359  159.8697 N.ar    1  UNL1       -0.2290
      7 C         139.0332  148.2510  155.1847 C.3     1  UNL1        0.0339
      8 C         139.0424  146.8503  155.7212 C.3     1  UNL1        0.1351
      9 C         139.9779  146.4794  156.8335 C.3     1  UNL1        0.1244
     10 N         139.9872  145.0787  157.3700 N.am    1  UNL1       -0.2590
     11 C         140.9227  144.7077  158.4823 C.2     1  UNL1        0.3089
     12 O         141.8490  145.7375  159.0581 O.2     1  UNL1       -0.2522
     13 N         140.9320  143.3070  159.0188 N.am    1  UNL1       -0.2535
     14 C         139.0609  144.0489  156.7942 C.3     1  UNL1        0.1244
     15 C         138.1254  144.4197  155.6819 C.3     1  UNL1        0.1351
     16 C         137.1991  143.3900  155.1061 C.3     1  UNL1        0.0339
     17 O         138.1161  145.8205  155.1454 O.3     1  UNL1       -0.3552
     18 H         140.3240  142.6311  158.6409 H       1  UNL1        0.1578
     19 C         141.7267  142.0239  163.9910 C.ar    1  UNL1        0.0188
     20 C         142.1701  142.6915  165.2589 C.ar    1  UNL1        0.0758
     21 N         141.3681  142.1183  166.3895 N.ar    1  UNL1       -0.3265
     22 C         140.4290  141.0965  165.8202 C.ar    1  UNL1        0.0793
     23 C         139.4007  140.2116  166.4602 C.ar    1  UNL1        0.1160
     24 N         138.5941  139.2684  165.6178 N.ar    1  UNL1       -0.2408
     25 C         138.8158  139.2101  164.1354 C.ar    1  UNL1        0.0990
     26 C         139.8440  140.0949  163.4955 C.ar    1  UNL1        0.0222
     27 C         140.6507  141.0381  164.3379 C.ar    1  UNL1        0.0203
     28 C         141.4846  142.4999  167.8354 C.3     1  UNL1        0.0906
     29 C         142.7356  142.1775  168.5978 C.3     1  UNL1        0.0547
     30 C         142.8522  142.5591  170.0437 C.3     1  UNL1        0.1441
     31 O         141.7178  143.2631  170.7274 O.3     1  UNL1       -0.3536
     32 C         140.4668  143.5856  169.9651 C.3     1  UNL1        0.1441
     33 C         140.3503  143.2039  168.5191 C.3     1  UNL1        0.0547
@<TRIPOS>BOND
     1     8     7    1
     2     8     9    1
     3     9    10    1
     4    10    11   am
     5    11    12    2
     6    11    13   am
     7    13     1    1
     8     1     2   ar
     9     2     3   ar
    10     3    19    1
    11    19    20   ar
    12    20    21   ar
    13    21    28    1
    14    28    29    1
    15    29    30    1
    16    30    31    1
    17    31    32    1
    18    32    33    1
    19    21    22   ar
    20    22    23   ar
    21    23    24   ar
    22    24    25   ar
    23    25    26   ar
    24    26    27   ar
    25     3     4   ar
    26     4     5   ar
    27     5     6   ar
    28    10    14    1
    29    14    15    1
    30    15    16    1
    31    15    17    1
    32    17     8    1
    33     6     1   ar
    34    27    19   ar
    35    33    28    1
    36    27    22   ar
    37    13    18    1
@<TRIPOS>MOLECULE
*****
 33 37 0 0 0
SMALL
GASTEIGER

@<TRIPOS>ATOM
      1 C         142.7084  143.5683  160.7472 C.ar    1  UNL1        0.1353
      2 C         142.6539  142.8042  162.0369 C.ar    1  UNL1        0.0346
      3 C         141.7204  143.2392  163.1276 C.ar    1  UNL1        0.0058
      4 C         140.8416  144.4383  162.9285 C.ar    1  UNL1        0.0208
      5 C         140.8961  145.2025  161.6389 C.ar    1  UNL1        0.1003
      6 N         141.8295  144.7674  160.5482 N.ar    1  UNL1       -0.2290
      7 C         144.5153  138.6606  154.9681 C.3     1  UNL1        0.0339
      8 C         144.8464  139.8614  155.8038 C.3     1  UNL1        0.1351
      9 C         143.9130  140.2965  156.8944 C.3     1  UNL1        0.1244
     10 N         144.2441  141.4973  157.7302 N.am    1  UNL1       -0.2590
     11 C         143.3107  141.9324  158.8209 C.2     1  UNL1        0.3089
     12 O         142.0462  141.1668  159.0757 O.2     1  UNL1       -0.2522
     13 N         143.6418  143.1332  159.6567 N.am    1  UNL1       -0.2535
     14 C         145.5086  142.2629  157.4754 C.3     1  UNL1        0.1244
     15 C         146.4420  141.8278  156.3848 C.3     1  UNL1        0.1351
     16 C         147.7064  142.5934  156.1299 C.3     1  UNL1        0.0339
     17 O         146.1109  140.6270  155.5490 O.3     1  UNL1       -0.3552
     18 H         144.4717  143.6357  159.4894 H       1  UNL1        0.1578
     19 C         141.6659  142.4751  164.4172 C.ar    1  UNL1        0.0188
     20 C         140.8353  142.8264  165.6158 C.ar    1  UNL1        0.0758
     21 N         141.0886  141.7939  166.6740 N.ar    1  UNL1       -0.3265
     22 C         142.0757  140.8045  166.1294 C.ar    1  UNL1        0.0793
     23 C         142.6957  139.5746  166.7234 C.ar    1  UNL1        0.1160
     24 N         143.6726  138.7657  165.9226 N.ar    1  UNL1       -0.2408
     25 C         144.0295  139.1867  164.5278 C.ar    1  UNL1        0.0990
     26 C         143.4094  140.4166  163.9338 C.ar    1  UNL1        0.0222
     27 C         142.4326  141.2255  164.7346 C.ar    1  UNL1        0.0203
     28 C         140.4643  141.7573  168.0374 C.3     1  UNL1        0.0906
     29 C         140.5907  142.9394  168.9522 C.3     1  UNL1        0.0547
     30 C         139.9664  142.9027  170.3157 C.3     1  UNL1        0.1441
     31 O         139.2157  141.6841  170.7643 O.3     1  UNL1       -0.3536
     32 C         139.0893  140.5020  169.8495 C.3     1  UNL1        0.1441
     33 C         139.7136  140.5387  168.4861 C.3     1  UNL1        0.0547
@<TRIPOS>BOND
     1     8     7    1
     2     8     9    1
     3     9    10    1
     4    10    11   am
     5    11    12    2
     6    11    13   am
     7    13     1    1
     8     1     2   ar
     9     2     3   ar
    10     3    19    1
    11    19    20   ar
    12    20    21   ar
    13    21    28    1
    14    28    29    1
    15    29    30    1
    16    30    31    1
    17    31    32    1
    18    32    33    1
    19    21    22   ar
    20    22    23   ar
    21    23    24   ar
    22    24    25   ar
    23    25    26   ar
    24    26    27   ar
    25     3     4   ar
    26     4     5   ar
    27     5     6   ar
    28    10    14    1
    29    14    15    1
    30    15    16    1
    31    15    17    1
    32    17     8    1
    33     6     1   ar
    34    27    19   ar
    35    33    28    1
    36    27    22   ar
    37    13    18    1
@<TRIPOS>MOLECULE
*****
 33 37 0 0 0
SMALL
GASTEIGER

@<TRIPOS>ATOM
      1 C         141.7125  140.0022  161.0329 C.ar    1  UNL1        0.1353
      2 C         141.2472  140.3818  162.4075 C.ar    1  UNL1        0.0346
      3 C         141.8160  139.6885  163.6100 C.ar    1  UNL1        0.0058
      4 C         142.8499  138.6156  163.4377 C.ar    1  UNL1        0.0208
      5 C         143.3152  138.2360  162.0632 C.ar    1  UNL1        0.1003
      6 N         142.7465  138.9293  160.8608 N.ar    1  UNL1       -0.2290
      7 C         135.8367  141.1171  156.0348 C.3     1  UNL1        0.0339
      8 C         137.2265  141.4388  156.4984 C.3     1  UNL1        0.1351
      9 C         137.7953  140.7455  157.7008 C.3     1  UNL1        0.1244
     10 N         139.1851  141.0672  158.1645 N.am    1  UNL1       -0.2590
     11 C         139.7539  140.3738  159.3669 C.2     1  UNL1        0.3089
     12 O         138.9330  139.3588  160.1056 O.2     1  UNL1       -0.2522
     13 N         141.1437  140.6956  159.8306 N.am    1  UNL1       -0.2535
     14 C         140.0060  142.0823  157.4258 C.3     1  UNL1        0.1244
     15 C         139.4372  142.7757  156.2234 C.3     1  UNL1        0.1351
     16 C         140.2581  143.7908  155.4847 C.3     1  UNL1        0.0339
     17 O         138.0474  142.4539  155.7598 O.3     1  UNL1       -0.3552
     18 H         141.6825  141.3618  159.3457 H       1  UNL1        0.1578
     19 C         141.3507  140.0680  164.9845 C.ar    1  UNL1        0.0188
     20 C         141.9852  141.0916  165.8788 C.ar    1  UNL1        0.0758
     21 N         141.1958  141.1469  167.1531 N.ar    1  UNL1       -0.3265
     22 C         140.0735  140.1574  167.0464 C.ar    1  UNL1        0.0793
     23 C         138.9767  139.7775  167.9965 C.ar    1  UNL1        0.1160
     24 N         137.9757  138.7308  167.6063 N.ar    1  UNL1       -0.2408
     25 C         138.0714  138.0640  166.2660 C.ar    1  UNL1        0.0990
     26 C         139.1681  138.4440  165.3160 C.ar    1  UNL1        0.0222
     27 C         140.1692  139.4907  165.7061 C.ar    1  UNL1        0.0203
     28 C         141.4791  142.0355  168.3278 C.3     1  UNL1        0.0906
     29 C         142.7909  141.9314  169.0480 C.3     1  UNL1        0.0547
     30 C         143.0741  142.8201  170.2228 C.3     1  UNL1        0.1441
     31 O         142.0456  143.8128  170.6774 O.3     1  UNL1       -0.3536
     32 C         140.7339  143.9168  169.9573 C.3     1  UNL1        0.1441
     33 C         140.4507  143.0282  168.7825 C.3     1  UNL1        0.0547
@<TRIPOS>BOND
     1     8     7    1
     2     8     9    1
     3     9    10    1
     4    10    11   am
     5    11    12    2
     6    11    13   am
     7    13     1    1
     8     1     2   ar
     9     2     3   ar
    10     3    19    1
    11    19    20   ar
    12    20    21   ar
    13    21    28    1
    14    28    29    1
    15    29    30    1
    16    30    31    1
    17    31    32    1
    18    32    33    1
    19    21    22   ar
    20    22    23   ar
    21    23    24   ar
    22    24    25   ar
    23    25    26   ar
    24    26    27   ar
    25     3     4   ar
    26     4     5   ar
    27     5     6   ar
    28    10    14    1
    29    14    15    1
    30    15    16    1
    31    15    17    1
    32    17     8    1
    33     6     1   ar
    34    27    19   ar
    35    33    28    1
    36    27    22   ar
    37    13    18    1
@<TRIPOS>MOLECULE
*****
 33 37 0 0 0
SMALL
GASTEIGER

@<TRIPOS>ATOM
      1 C         143.7675  140.8519  161.6382 C.ar    1  UNL1        0.1353
      2 C         142.8071  140.7050  162.7810 C.ar    1  UNL1        0.0346
      3 C         143.2469  141.0327  164.1773 C.ar    1  UNL1        0.0058
      4 C         144.6471  141.5072  164.4305 C.ar    1  UNL1        0.0208
      5 C         145.6075  141.6541  163.2876 C.ar    1  UNL1        0.1003
      6 N         145.1677  141.3265  161.8915 N.ar    1  UNL1       -0.2290
      7 C         142.1482  135.5757  156.1348 C.3     1  UNL1        0.0339
      8 C         142.2481  137.0067  156.5731 C.3     1  UNL1        0.1351
      9 C         142.6880  137.3344  157.9692 C.3     1  UNL1        0.1244
     10 N         142.7878  138.7654  158.4076 N.am    1  UNL1       -0.2590
     11 C         143.2277  139.0932  159.8038 C.2     1  UNL1        0.3089
     12 O         143.5678  137.9900  160.7615 O.2     1  UNL1       -0.2522
     13 N         143.3276  140.5243  160.2421 N.am    1  UNL1       -0.2535
     14 C         142.4478  139.8687  157.4499 C.3     1  UNL1        0.1244
     15 C         142.0079  139.5410  156.0538 C.3     1  UNL1        0.1351
     16 C         141.6679  140.6443  155.0961 C.3     1  UNL1        0.0339
     17 O         141.9080  138.1100  155.6154 O.3     1  UNL1       -0.3552
     18 H         143.1044  141.2484  159.6136 H       1  UNL1        0.1578
     19 C         142.2865  140.8858  165.3201 C.ar    1  UNL1        0.0188
     20 C         142.4492  141.4752  166.6898 C.ar    1  UNL1        0.0758
     21 N         141.2580  141.0774  167.5100 N.ar    1  UNL1       -0.3265
     22 C         140.3592  140.2422  166.6473 C.ar    1  UNL1        0.0793
     23 C         139.0440  139.5741  166.9192 C.ar    1  UNL1        0.1160
     24 N         138.3645  138.7877  165.8377 N.ar    1  UNL1       -0.2408
     25 C         139.0001  138.6693  164.4842 C.ar    1  UNL1        0.0990
     26 C         140.3153  139.3373  164.2122 C.ar    1  UNL1        0.0222
     27 C         140.9948  140.1238  165.2938 C.ar    1  UNL1        0.0203
     28 C         141.0093  141.4495  168.9417 C.3     1  UNL1        0.0906
     29 C         140.1498  142.6342  169.2703 C.3     1  UNL1        0.0547
     30 C         139.9011  143.0063  170.7020 C.3     1  UNL1        0.1441
     31 O         140.5119  142.1938  171.8051 O.3     1  UNL1       -0.3536
     32 C         141.3714  141.0092  171.4764 C.3     1  UNL1        0.1441
     33 C         141.6201  140.6371  170.0448 C.3     1  UNL1        0.0547
@<TRIPOS>BOND
     1     8     7    1
     2     8     9    1
     3     9    10    1
     4    10    11   am
     5    11    12    2
     6    11    13   am
     7    13     1    1
     8     1     2   ar
     9     2     3   ar
    10     3    19    1
    11    19    20   ar
    12    20    21   ar
    13    21    28    1
    14    28    29    1
    15    29    30    1
    16    30    31    1
    17    31    32    1
    18    32    33    1
    19    21    22   ar
    20    22    23   ar
    21    23    24   ar
    22    24    25   ar
    23    25    26   ar
    24    26    27   ar
    25     3     4   ar
    26     4     5   ar
    27     5     6   ar
    28    10    14    1
    29    14    15    1
    30    15    16    1
    31    15    17    1
    32    17     8    1
    33     6     1   ar
    34    27    19   ar
    35    33    28    1
    36    27    22   ar
    37    13    18    1
@<TRIPOS>MOLECULE
*****
 33 37 0 0 0
SMALL
GASTEIGER

@<TRIPOS>ATOM
      1 C         139.3100  143.5672  160.6117 C.ar    1  UNL1        0.1353
      2 C         139.6557  142.8395  161.8769 C.ar    1  UNL1        0.0346
      3 C         140.3470  143.5639  162.9939 C.ar    1  UNL1        0.0058
      4 C         140.6925  145.0159  162.8455 C.ar    1  UNL1        0.0208
      5 C         140.3468  145.7437  161.5802 C.ar    1  UNL1        0.1003
      6 N         139.6555  145.0193  160.4633 N.ar    1  UNL1       -0.2290
      7 C         139.4433  138.2563  154.9086 C.3     1  UNL1        0.0339
      8 C         138.7076  139.3021  155.6928 C.3     1  UNL1        0.1351
      9 C         139.3988  140.0266  156.8096 C.3     1  UNL1        0.1244
     10 N         138.6631  141.0724  157.5938 N.am    1  UNL1       -0.2590
     11 C         139.3544  141.7969  158.7107 C.2     1  UNL1        0.3089
     12 O         140.7813  141.4755  159.0434 O.2     1  UNL1       -0.2522
     13 N         138.6187  142.8428  159.4949 N.am    1  UNL1       -0.2535
     14 C         137.2363  141.3939  157.2611 C.3     1  UNL1        0.1244
     15 C         136.5450  140.6695  156.1442 C.3     1  UNL1        0.1351
     16 C         135.1181  140.9909  155.8115 C.3     1  UNL1        0.0339
     17 O         137.2807  139.6236  155.3601 O.3     1  UNL1       -0.3552
     18 H         137.6822  143.0538  159.2765 H       1  UNL1        0.1578
     19 C         140.6927  142.8361  164.2592 C.ar    1  UNL1        0.0188
     20 C         140.0115  143.0010  165.5854 C.ar    1  UNL1        0.0758
     21 N         140.6781  142.0825  166.5662 N.ar    1  UNL1       -0.3265
     22 C         141.7712  141.3500  165.8461 C.ar    1  UNL1        0.0793
     23 C         142.7596  140.3190  166.3046 C.ar    1  UNL1        0.1160
     24 N         143.7569  139.7538  165.3372 N.ar    1  UNL1       -0.2408
     25 C         143.7659  140.2195  163.9114 C.ar    1  UNL1        0.0990
     26 C         142.7775  141.2505  163.4529 C.ar    1  UNL1        0.0222
     27 C         141.7802  141.8157  164.4203 C.ar    1  UNL1        0.0203
     28 C         140.3153  141.9243  168.0130 C.3     1  UNL1        0.0906
     29 C         139.7706  140.6184  168.5112 C.3     1  UNL1        0.0547
     30 C         139.4078  140.4602  169.9580 C.3     1  UNL1        0.1441
     31 O         139.5896  141.6078  170.9067 O.3     1  UNL1       -0.3536
     32 C         140.1343  142.9136  170.4085 C.3     1  UNL1        0.1441
     33 C         140.4971  143.0718  168.9617 C.3     1  UNL1        0.0547
@<TRIPOS>BOND
     1     8     7    1
     2     8     9    1
     3     9    10    1
     4    10    11   am
     5    11    12    2
     6    11    13   am
     7    13     1    1
     8     1     2   ar
     9     2     3   ar
    10     3    19    1
    11    19    20   ar
    12    20    21   ar
    13    21    28    1
    14    28    29    1
    15    29    30    1
    16    30    31    1
    17    31    32    1
    18    32    33    1
    19    21    22   ar
    20    22    23   ar
    21    23    24   ar
    22    24    25   ar
    23    25    26   ar
    24    26    27   ar
    25     3     4   ar
    26     4     5   ar
    27     5     6   ar
    28    10    14    1
    29    14    15    1
    30    15    16    1
    31    15    17    1
    32    17     8    1
    33     6     1   ar
    34    27    19   ar
    35    33    28    1
    36    27    22   ar
    37    13    18    1
@<TRIPOS>MOLECULE
*****
 33 37 0 0 0
SMALL
GASTEIGER

@<TRIPOS>ATOM
      1 C         141.8759  141.0047  160.1677 C.ar    1  UNL1        0.1353
      2 C         141.4687  140.8181  161.5993 C.ar    1  UNL1        0.0346
      3 C         141.8809  141.8234  162.6335 C.ar    1  UNL1        0.0058
      4 C         142.7002  143.0153  162.2360 C.ar    1  UNL1        0.0208
      5 C         143.1073  143.2019  160.8044 C.ar    1  UNL1        0.1003
      6 N         142.6952  142.1966  159.7703 N.ar    1  UNL1       -0.2290
      7 C         143.3588  134.5456  156.0653 C.3     1  UNL1        0.0339
      8 C         142.4523  135.6932  156.3987 C.3     1  UNL1        0.1351
      9 C         142.8645  136.6986  157.4327 C.3     1  UNL1        0.1244
     10 N         141.9580  137.8462  157.7661 N.am    1  UNL1       -0.2590
     11 C         142.3702  138.8517  158.8002 C.2     1  UNL1        0.3089
     12 O         143.6888  138.7094  159.5009 O.2     1  UNL1       -0.2522
     13 N         141.4636  139.9994  159.1336 N.am    1  UNL1       -0.2535
     14 C         140.6393  137.9885  157.0654 C.3     1  UNL1        0.1244
     15 C         140.2271  136.9832  156.0314 C.3     1  UNL1        0.1351
     16 C         138.9085  137.1254  155.3307 C.3     1  UNL1        0.0339
     17 O         141.1337  135.8355  155.6980 O.3     1  UNL1       -0.3552
     18 H         140.5982  140.0927  158.6738 H       1  UNL1        0.1578
     19 C         141.4737  141.6368  164.0650 C.ar    1  UNL1        0.0188
     20 C         142.0006  142.4074  165.2392 C.ar    1  UNL1        0.0758
     21 N         141.3207  141.8936  166.4735 N.ar    1  UNL1       -0.3265
     22 C         140.3736  140.8055  166.0623 C.ar    1  UNL1        0.0793
     23 C         139.4373  139.9387  166.8510 C.ar    1  UNL1        0.1160
     24 N         138.5957  138.9132  166.1511 N.ar    1  UNL1       -0.2408
     25 C         138.6903  138.7545  164.6625 C.ar    1  UNL1        0.0990
     26 C         139.6265  139.6213  163.8738 C.ar    1  UNL1        0.0222
     27 C         140.4682  140.6468  164.5737 C.ar    1  UNL1        0.0203
     28 C         141.5479  142.3822  167.8734 C.3     1  UNL1        0.0906
     29 C         142.8606  142.1270  168.5531 C.3     1  UNL1        0.0547
     30 C         143.0878  142.6155  169.9530 C.3     1  UNL1        0.1441
     31 O         142.0024  143.3592  170.6733 O.3     1  UNL1       -0.3536
     32 C         140.6898  143.6144  169.9936 C.3     1  UNL1        0.1441
     33 C         140.4626  143.1259  168.5937 C.3     1  UNL1        0.0547
@<TRIPOS>BOND
     1     8     7    1
     2     8     9    1
     3     9    10    1
     4    10    11   am
     5    11    12    2
     6    11    13   am
     7    13     1    1
     8     1     2   ar
     9     2     3   ar
    10     3    19    1
    11    19    20   ar
    12    20    21   ar
    13    21    28    1
    14    28    29    1
    15    29    30    1
    16    30    31    1
    17    31    32    1
    18    32    33    1
    19    21    22   ar
    20    22    23   ar
    21    23    24   ar
    22    24    25   ar
    23    25    26   ar
    24    26    27   ar
    25     3     4   ar
    26     4     5   ar
    27     5     6   ar
    28    10    14    1
    29    14    15    1
    30    15    16    1
    31    15    17    1
    32    17     8    1
    33     6     1   ar
    34    27    19   ar
    35    33    28    1
    36    27    22   ar
    37    13    18    1
@<TRIPOS>MOLECULE
*****
 33 37 0 0 0
SMALL
GASTEIGER

@<TRIPOS>ATOM
      1 C         136.2262  140.9299  156.1698 C.ar    1  UNL1        0.1353
      2 C         136.8980  141.7942  157.1954 C.ar    1  UNL1        0.0346
      3 C         138.3551  141.6051  157.4973 C.ar    1  UNL1        0.0058
      4 C         139.1403  140.5517  156.7736 C.ar    1  UNL1        0.0208
      5 C         138.4686  139.6874  155.7480 C.ar    1  UNL1        0.1003
      6 N         137.0115  139.8766  155.4461 N.ar    1  UNL1       -0.2290
      7 C         128.7644  139.1242  157.5154 C.3     1  UNL1        0.0339
      8 C         129.7946  139.9153  156.7650 C.3     1  UNL1        0.1351
      9 C         131.2517  139.7261  157.0668 C.3     1  UNL1        0.1244
     10 N         132.2818  140.5172  156.3165 N.am    1  UNL1       -0.2590
     11 C         133.7390  140.3280  156.6183 C.2     1  UNL1        0.3089
     12 O         134.1659  139.3479  157.6704 O.2     1  UNL1       -0.2522
     13 N         134.7692  141.1191  155.8680 N.am    1  UNL1       -0.2535
     14 C         131.8549  141.4974  155.2644 C.3     1  UNL1        0.1244
     15 C         130.3978  141.6865  154.9626 C.3     1  UNL1        0.1351
     16 C         129.9709  142.6667  153.9104 C.3     1  UNL1        0.0339
     17 O         129.3677  140.8955  155.7129 O.3     1  UNL1       -0.3552
     18 H         134.4890  141.7624  155.1774 H       1  UNL1        0.1578
     19 C         139.0269  142.4693  158.5228 C.ar    1  UNL1        0.0188
     20 C         138.8022  142.4155  160.0049 C.ar    1  UNL1        0.0758
     21 N         139.6778  143.4521  160.6444 N.ar    1  UNL1       -0.3265
     22 C         140.4436  144.1465  159.5575 C.ar    1  UNL1        0.0793
     23 C         141.4552  145.2535  159.5924 C.ar    1  UNL1        0.1160
     24 N         142.0646  145.7530  158.3161 N.ar    1  UNL1       -0.2408
     25 C         141.6623  145.1456  157.0049 C.ar    1  UNL1        0.0990
     26 C         140.6507  144.0387  156.9700 C.ar    1  UNL1        0.0222
     27 C         140.0413  143.5391  158.2463 C.ar    1  UNL1        0.0203
     28 C         139.7712  143.7431  162.1129 C.3     1  UNL1        0.0906
     29 C         138.6114  144.3700  162.8285 C.3     1  UNL1        0.0547
     30 C         138.7048  144.6611  164.2971 C.3     1  UNL1        0.1441
     31 O         139.9578  144.3252  165.0500 O.3     1  UNL1       -0.3536
     32 C         141.1176  143.6984  164.3344 C.3     1  UNL1        0.1441
     33 C         141.0242  143.4073  162.8659 C.3     1  UNL1        0.0547
@<TRIPOS>BOND
     1     8     7    1
     2     8     9    1
     3     9    10    1
     4    10    11   am
     5    11    12    2
     6    11    13   am
     7    13     1    1
     8     1     2   ar
     9     2     3   ar
    10     3    19    1
    11    19    20   ar
    12    20    21   ar
    13    21    28    1
    14    28    29    1
    15    29    30    1
    16    30    31    1
    17    31    32    1
    18    32    33    1
    19    21    22   ar
    20    22    23   ar
    21    23    24   ar
    22    24    25   ar
    23    25    26   ar
    24    26    27   ar
    25     3     4   ar
    26     4     5   ar
    27     5     6   ar
    28    10    14    1
    29    14    15    1
    30    15    16    1
    31    15    17    1
    32    17     8    1
    33     6     1   ar
    34    27    19   ar
    35    33    28    1
    36    27    22   ar
    37    13    18    1
@<TRIPOS>MOLECULE
*****
 33 37 0 0 0
SMALL
GASTEIGER

@<TRIPOS>ATOM
      1 C         142.8377  143.1331  159.9098 C.ar    1  UNL1        0.1353
      2 C         142.4954  142.1486  160.9885 C.ar    1  UNL1        0.0346
      3 C         141.4893  142.5089  162.0411 C.ar    1  UNL1        0.0058
      4 C         140.8254  143.8537  162.0149 C.ar    1  UNL1        0.0208
      5 C         141.1677  144.8382  160.9362 C.ar    1  UNL1        0.1003
      6 N         142.1738  144.4780  159.8837 N.ar    1  UNL1       -0.2290
      7 C         144.5499  139.8511  153.0508 C.3     1  UNL1        0.0339
      8 C         144.9853  140.5847  154.2846 C.3     1  UNL1        0.1351
      9 C         143.9791  140.9451  155.3371 C.3     1  UNL1        0.1244
     10 N         144.4145  141.6787  156.5709 N.am    1  UNL1       -0.2590
     11 C         143.4084  142.0391  157.6235 C.2     1  UNL1        0.3089
     12 O         141.9669  141.6659  157.4423 O.2     1  UNL1       -0.2522
     13 N         143.8438  142.7728  158.8573 N.am    1  UNL1       -0.2535
     14 C         145.8560  142.0519  156.7521 C.3     1  UNL1        0.1244
     15 C         146.8621  141.6916  155.6996 C.3     1  UNL1        0.1351
     16 C         148.3036  142.0648  155.8808 C.3     1  UNL1        0.0339
     17 O         146.4267  140.9579  154.4658 O.3     1  UNL1       -0.3552
     18 H         144.7899  143.0178  158.9763 H       1  UNL1        0.1578
     19 C         141.1470  141.5244  163.1198 C.ar    1  UNL1        0.0188
     20 C         141.4477  141.6779  164.5813 C.ar    1  UNL1        0.0758
     21 N         140.9305  140.4618  165.2911 N.ar    1  UNL1       -0.3265
     22 C         140.3102  139.5568  164.2683 C.ar    1  UNL1        0.0793
     23 C         139.6408  138.2196  164.3855 C.ar    1  UNL1        0.1160
     24 N         139.1053  137.5391  163.1607 N.ar    1  UNL1       -0.2408
     25 C         139.2391  138.1958  161.8188 C.ar    1  UNL1        0.0990
     26 C         139.9085  139.5330  161.7016 C.ar    1  UNL1        0.0222
     27 C         140.4440  140.2135  162.9263 C.ar    1  UNL1        0.0203
     28 C         141.0182  140.1972  166.7650 C.3     1  UNL1        0.0906
     29 C         139.7920  140.3106  167.6216 C.3     1  UNL1        0.0547
     30 C         139.8798  140.0460  169.0955 C.3     1  UNL1        0.1441
     31 O         141.1936  139.6681  169.7128 O.3     1  UNL1       -0.3536
     32 C         142.4197  139.5547  168.8561 C.3     1  UNL1        0.1441
     33 C         142.3320  139.8193  167.3823 C.3     1  UNL1        0.0547
@<TRIPOS>BOND
     1     8     7    1
     2     8     9    1
     3     9    10    1
     4    10    11   am
     5    11    12    2
     6    11    13   am
     7    13     1    1
     8     1     2   ar
     9     2     3   ar
    10     3    19    1
    11    19    20   ar
    12    20    21   ar
    13    21    28    1
    14    28    29    1
    15    29    30    1
    16    30    31    1
    17    31    32    1
    18    32    33    1
    19    21    22   ar
    20    22    23   ar
    21    23    24   ar
    22    24    25   ar
    23    25    26   ar
    24    26    27   ar
    25     3     4   ar
    26     4     5   ar
    27     5     6   ar
    28    10    14    1
    29    14    15    1
    30    15    16    1
    31    15    17    1
    32    17     8    1
    33     6     1   ar
    34    27    19   ar
    35    33    28    1
    36    27    22   ar
    37    13    18    1
