@<TRIPOS>MOLECULE
*****
 32 34 0 0 0
SMALL
GASTEIGER

@<TRIPOS>ATOM
      1 C         142.0730  138.9510  158.9961 C.3     1  UNL1        0.1102
      2 C         140.7705  138.3470  158.5619 C.3     1  UNL1        0.0296
      3 C         139.5312  138.5712  159.3767 C.3     1  UNL1        0.0730
      4 N         139.5944  139.3996  160.6257 N.3     1  UNL1       -0.2689
      5 C         140.8969  140.0037  161.0598 C.3     1  UNL1        0.0730
      6 C         142.1362  139.7794  160.2450 C.3     1  UNL1        0.0296
      7 C         143.5292  139.3108  158.9965 C.2     1  UNL1        0.3177
      8 O         144.3565  139.0877  160.2277 O.2     1  UNL1       -0.2501
      9 C         144.6211  141.3205  157.7641 C.3     1  UNL1        0.2556
     10 O         144.1581  139.8938  157.7659 O.3     1  UNL1       -0.4444
     11 C         142.5154  138.2476  157.7473 C.3     1  UNL1        0.1002
     12 N         142.3894  136.7567  157.6416 N.am    1  UNL1       -0.3003
     13 C         143.2778  135.9935  156.7043 C.2     1  UNL1        0.2459
     14 O         144.2921  136.7213  155.8727 O.2     1  UNL1       -0.2701
     15 H         141.7237  136.2790  158.1874 H       1  UNL1        0.1498
     16 C         143.1518  134.5026  156.5986 C.ar    1  UNL1        0.0550
     17 C         142.0743  133.8994  155.7470 C.ar    1  UNL1        0.0160
     18 C         141.9484  132.4085  155.6413 C.ar    1  UNL1        0.0587
     19 CL        140.8708  131.8054  154.7897 Cl      1  UNL1       -0.0822
     20 C         142.8999  131.5206  156.3872 C.ar    1  UNL1        0.0228
     21 C         143.9774  132.1238  157.2388 C.ar    1  UNL1        0.0587
     22 CL        144.9289  131.2359  157.9847 Cl      1  UNL1       -0.0822
     23 C         144.1034  133.6147  157.3445 C.ar    1  UNL1        0.0160
     24 C         138.3551  139.6239  161.4404 C.3     1  UNL1        0.0991
     25 C         138.4004  139.4717  162.9320 C.ar    1  UNL1       -0.0059
     26 C         138.0712  140.6386  163.8152 C.ar    1  UNL1        0.0002
     27 C         138.1165  140.4865  165.3069 C.ar    1  UNL1        0.0366
     28 C         138.4910  139.1675  165.9152 C.ar    1  UNL1        0.1387
     29 C         138.8202  138.0006  165.0319 C.ar    1  UNL1        0.0366
     30 C         138.7749  138.1528  163.5404 C.ar    1  UNL1        0.0002
     31 O         138.5363  139.0153  167.4067 O.3     1  UNL1       -0.4714
     32 C         139.4246  139.9052  168.2247 C.3     1  UNL1        0.2525
@<TRIPOS>BOND
     1     9    10    1
     2    10     7    1
     3     7     8    2
     4     7     1    1
     5     1    11    1
     6    11    12    1
     7    12    13   am
     8    13    14    2
     9    13    16    1
    10    16    17   ar
    11    17    18   ar
    12    18    19    1
    13    18    20   ar
    14    20    21   ar
    15    21    22    1
    16    21    23   ar
    17     1     2    1
    18     2     3    1
    19     3     4    1
    20     4    24    1
    21    24    25    1
    22    25    26   ar
    23    26    27   ar
    24    27    28   ar
    25    28    31    1
    26    31    32    1
    27    28    29   ar
    28    29    30   ar
    29     4     5    1
    30     5     6    1
    31     6     1    1
    32    23    16   ar
    33    30    25   ar
    34    12    15    1
@<TRIPOS>MOLECULE
*****
 32 34 0 0 0
SMALL
GASTEIGER

@<TRIPOS>ATOM
      1 C         143.2314  139.1757  159.5777 C.3     1  UNL1        0.1102
      2 C         142.5006  137.9672  160.0829 C.3     1  UNL1        0.0296
      3 C         142.3534  137.7422  161.5586 C.3     1  UNL1        0.0730
      4 N         142.9372  138.7257  162.5291 N.3     1  UNL1       -0.2689
      5 C         143.6680  139.9343  162.0240 C.3     1  UNL1        0.0730
      6 C         143.8152  140.1593  160.5483 C.3     1  UNL1        0.0296
      7 C         143.8320  140.1616  158.6199 C.2     1  UNL1        0.3177
      8 O         144.3525  139.6960  157.2924 O.2     1  UNL1       -0.2501
      9 C         144.5541  142.5918  158.0515 C.3     1  UNL1        0.2556
     10 O         143.9122  141.6131  158.9897 O.3     1  UNL1       -0.4444
     11 C         142.8563  138.5346  158.2746 C.3     1  UNL1        0.1002
     12 N         143.0058  137.0526  158.0974 N.am    1  UNL1       -0.3003
     13 C         142.5520  136.3998  156.8253 C.2     1  UNL1        0.2459
     14 O         141.9488  137.2290  155.7306 O.2     1  UNL1       -0.2701
     15 H         143.4017  136.5084  158.8159 H       1  UNL1        0.1498
     16 C         142.7016  134.9179  156.6481 C.ar    1  UNL1        0.0550
     17 C         143.7743  134.1781  157.3910 C.ar    1  UNL1        0.0160
     18 C         143.9238  132.6962  157.2138 C.ar    1  UNL1        0.0587
     19 CL        144.9966  131.9564  157.9568 Cl      1  UNL1       -0.0822
     20 C         143.0006  131.9539  156.2936 C.ar    1  UNL1        0.0228
     21 C         141.9278  132.6937  155.5506 C.ar    1  UNL1        0.0587
     22 CL        141.0046  131.9514  154.6305 Cl      1  UNL1       -0.0822
     23 C         141.7783  134.1756  155.7279 C.ar    1  UNL1        0.0160
     24 C         142.7900  138.5007  164.0048 C.3     1  UNL1        0.0991
     25 C         141.4328  138.5590  164.6407 C.ar    1  UNL1       -0.0059
     26 C         140.3869  137.5496  164.2700 C.ar    1  UNL1        0.0002
     27 C         139.0296  137.6078  164.9059 C.ar    1  UNL1        0.0366
     28 C         138.7181  138.6754  165.9125 C.ar    1  UNL1        0.1387
     29 C         139.7640  139.6847  166.2833 C.ar    1  UNL1        0.0366
     30 C         141.1213  139.6265  165.6474 C.ar    1  UNL1        0.0002
     31 O         137.3609  138.7336  166.5484 O.3     1  UNL1       -0.4714
     32 C         137.0334  137.8313  167.7012 C.3     1  UNL1        0.2525
@<TRIPOS>BOND
     1     9    10    1
     2    10     7    1
     3     7     8    2
     4     7     1    1
     5     1    11    1
     6    11    12    1
     7    12    13   am
     8    13    14    2
     9    13    16    1
    10    16    17   ar
    11    17    18   ar
    12    18    19    1
    13    18    20   ar
    14    20    21   ar
    15    21    22    1
    16    21    23   ar
    17     1     2    1
    18     2     3    1
    19     3     4    1
    20     4    24    1
    21    24    25    1
    22    25    26   ar
    23    26    27   ar
    24    27    28   ar
    25    28    31    1
    26    31    32    1
    27    28    29   ar
    28    29    30   ar
    29     4     5    1
    30     5     6    1
    31     6     1    1
    32    23    16   ar
    33    30    25   ar
    34    12    15    1
@<TRIPOS>MOLECULE
*****
 32 34 0 0 0
SMALL
GASTEIGER

@<TRIPOS>ATOM
      1 C         141.8141  138.7908  158.9840 C.3     1  UNL1        0.1102
      2 C         140.4367  138.4404  158.5046 C.3     1  UNL1        0.0296
      3 C         139.2541  138.6489  159.4035 C.3     1  UNL1        0.0730
      4 N         139.4490  139.2078  160.7818 N.3     1  UNL1       -0.2689
      5 C         140.8264  139.5582  161.2611 C.3     1  UNL1        0.0730
      6 C         142.0090  139.3497  160.3623 C.3     1  UNL1        0.0296
      7 C         143.3036  138.9685  158.9848 C.2     1  UNL1        0.3177
      8 O         144.1170  138.4759  160.1448 O.2     1  UNL1       -0.2501
      9 C         144.4252  141.0665  157.9406 C.3     1  UNL1        0.2556
     10 O         143.9795  139.6388  157.8257 O.3     1  UNL1       -0.4444
     11 C         142.1365  138.2936  157.6060 C.3     1  UNL1        0.1002
     12 N         142.8269  136.9740  157.4272 N.am    1  UNL1       -0.3003
     13 C         142.2416  135.9391  156.5126 C.2     1  UNL1        0.2459
     14 O         140.9658  136.2238  155.7769 O.2     1  UNL1       -0.2701
     15 H         143.6643  136.7872  157.9101 H       1  UNL1        0.1498
     16 C         142.9321  134.6195  156.3339 C.ar    1  UNL1        0.0550
     17 C         143.8797  134.1206  157.3841 C.ar    1  UNL1        0.0160
     18 C         144.5702  132.8010  157.2053 C.ar    1  UNL1        0.0587
     19 CL        145.5179  132.3020  158.2556 Cl      1  UNL1       -0.0822
     20 C         144.3130  131.9804  155.9763 C.ar    1  UNL1        0.0228
     21 C         143.3654  132.4793  154.9260 C.ar    1  UNL1        0.0587
     22 CL        143.1082  131.6587  153.6971 Cl      1  UNL1       -0.0822
     23 C         142.6749  133.7989  155.1048 C.ar    1  UNL1        0.0160
     24 C         138.2664  139.4164  161.6806 C.3     1  UNL1        0.0991
     25 C         138.1277  140.6945  162.4533 C.ar    1  UNL1       -0.0059
     26 C         138.1743  140.6735  163.9525 C.ar    1  UNL1        0.0002
     27 C         138.0356  141.9516  164.7252 C.ar    1  UNL1        0.0366
     28 C         137.8504  143.2509  163.9988 C.ar    1  UNL1        0.1387
     29 C         137.8038  143.2719  162.4996 C.ar    1  UNL1        0.0366
     30 C         137.9425  141.9938  161.7270 C.ar    1  UNL1        0.0002
     31 O         137.7117  144.5290  164.7714 O.3     1  UNL1       -0.4714
     32 C         138.7562  144.9147  165.7767 C.3     1  UNL1        0.2525
@<TRIPOS>BOND
     1     9    10    1
     2    10     7    1
     3     7     8    2
     4     7     1    1
     5     1    11    1
     6    11    12    1
     7    12    13   am
     8    13    14    2
     9    13    16    1
    10    16    17   ar
    11    17    18   ar
    12    18    19    1
    13    18    20   ar
    14    20    21   ar
    15    21    22    1
    16    21    23   ar
    17     1     2    1
    18     2     3    1
    19     3     4    1
    20     4    24    1
    21    24    25    1
    22    25    26   ar
    23    26    27   ar
    24    27    28   ar
    25    28    31    1
    26    31    32    1
    27    28    29   ar
    28    29    30   ar
    29     4     5    1
    30     5     6    1
    31     6     1    1
    32    23    16   ar
    33    30    25   ar
    34    12    15    1
@<TRIPOS>MOLECULE
*****
 32 34 0 0 0
SMALL
GASTEIGER

@<TRIPOS>ATOM
      1 C         143.6397  139.4469  161.1163 C.3     1  UNL1        0.1102
      2 C         143.2370  138.0797  160.6491 C.3     1  UNL1        0.0296
      3 C         143.0219  137.8197  159.1876 C.3     1  UNL1        0.0730
      4 N         143.2095  138.9270  158.1932 N.3     1  UNL1       -0.2689
      5 C         143.6122  140.2943  158.6604 C.3     1  UNL1        0.0730
      6 C         143.8273  140.5543  160.1220 C.3     1  UNL1        0.0296
      7 C         144.0236  140.5645  162.0403 C.2     1  UNL1        0.3177
      8 O         143.1461  141.7753  162.1579 O.2     1  UNL1       -0.2501
      9 C         145.7290  141.6352  163.6820 C.3     1  UNL1        0.2556
     10 O         145.2849  140.4712  162.8467 O.3     1  UNL1       -0.4444
     11 C         143.5855  138.7277  162.4315 C.3     1  UNL1        0.1002
     12 N         142.5233  139.0740  163.4324 N.am    1  UNL1       -0.3003
     13 C         142.8242  139.0032  164.9003 C.2     1  UNL1        0.2459
     14 O         144.1873  138.5862  165.3671 O.2     1  UNL1       -0.2701
     15 H         141.6286  139.3477  163.1260 H       1  UNL1        0.1498
     16 C         141.7621  139.3495  165.9012 C.ar    1  UNL1        0.0550
     17 C         142.1345  140.0299  167.1850 C.ar    1  UNL1        0.0160
     18 C         141.0723  140.3762  168.1859 C.ar    1  UNL1        0.0587
     19 CL        141.4448  141.0567  169.4698 Cl      1  UNL1       -0.0822
     20 C         139.6377  140.0420  167.9030 C.ar    1  UNL1        0.0228
     21 C         139.2652  139.3615  166.6192 C.ar    1  UNL1        0.0587
     22 CL        137.8305  139.0273  166.3363 Cl      1  UNL1       -0.0822
     23 C         140.3273  139.0152  165.6182 C.ar    1  UNL1        0.0160
     24 C         142.9943  138.6670  156.7317 C.3     1  UNL1        0.0991
     25 C         142.7128  137.2743  156.2512 C.ar    1  UNL1       -0.0059
     26 C         143.8464  136.3261  155.9942 C.ar    1  UNL1        0.0002
     27 C         143.5649  134.9332  155.5137 C.ar    1  UNL1        0.0366
     28 C         142.1499  134.4886  155.2900 C.ar    1  UNL1        0.1387
     29 C         141.0163  135.4369  155.5470 C.ar    1  UNL1        0.0366
     30 C         141.2978  136.8296  156.0275 C.ar    1  UNL1        0.0002
     31 O         141.8684  133.0959  154.8095 O.3     1  UNL1       -0.4714
     32 C         142.1584  131.9229  155.6984 C.3     1  UNL1        0.2525
@<TRIPOS>BOND
     1     9    10    1
     2    10     7    1
     3     7     8    2
     4     7     1    1
     5     1    11    1
     6    11    12    1
     7    12    13   am
     8    13    14    2
     9    13    16    1
    10    16    17   ar
    11    17    18   ar
    12    18    19    1
    13    18    20   ar
    14    20    21   ar
    15    21    22    1
    16    21    23   ar
    17     1     2    1
    18     2     3    1
    19     3     4    1
    20     4    24    1
    21    24    25    1
    22    25    26   ar
    23    26    27   ar
    24    27    28   ar
    25    28    31    1
    26    31    32    1
    27    28    29   ar
    28    29    30   ar
    29     4     5    1
    30     5     6    1
    31     6     1    1
    32    23    16   ar
    33    30    25   ar
    34    12    15    1
@<TRIPOS>MOLECULE
*****
 32 34 0 0 0
SMALL
GASTEIGER

@<TRIPOS>ATOM
      1 C         142.1248  139.0870  158.9667 C.3     1  UNL1        0.1102
      2 C         140.8777  138.4821  158.3934 C.3     1  UNL1        0.0296
      3 C         139.6145  138.4603  159.2020 C.3     1  UNL1        0.0730
      4 N         139.5985  139.0434  160.5840 N.3     1  UNL1       -0.2689
      5 C         140.8456  139.6483  161.1573 C.3     1  UNL1        0.0730
      6 C         142.1088  139.6701  160.3487 C.3     1  UNL1        0.0296
      7 C         143.5494  139.5445  159.0729 C.2     1  UNL1        0.3177
      8 O         144.3941  139.1044  160.2316 O.2     1  UNL1       -0.2501
      9 C         144.5323  141.8443  158.3693 C.3     1  UNL1        0.2556
     10 O         144.1293  140.4422  158.0204 O.3     1  UNL1       -0.4444
     11 C         142.6356  138.6628  157.6216 C.3     1  UNL1        0.1002
     12 N         142.3278  137.2901  157.1013 N.am    1  UNL1       -0.3003
     13 C         143.2899  136.6055  156.1762 C.2     1  UNL1        0.2459
     14 O         144.5598  137.2937  155.7715 O.2     1  UNL1       -0.2701
     15 H         141.4943  136.8384  157.3669 H       1  UNL1        0.1498
     16 C         142.9822  135.2327  155.6558 C.ar    1  UNL1        0.0550
     17 C         143.0613  134.0480  156.5724 C.ar    1  UNL1        0.0160
     18 C         142.7535  132.6753  156.0520 C.ar    1  UNL1        0.0587
     19 CL        142.8327  131.4905  156.9687 Cl      1  UNL1       -0.0822
     20 C         142.3666  132.4872  154.6151 C.ar    1  UNL1        0.0228
     21 C         142.2875  133.6719  153.6984 C.ar    1  UNL1        0.0587
     22 CL        141.9006  133.4839  152.2615 Cl      1  UNL1       -0.0822
     23 C         142.5953  135.0447  154.2188 C.ar    1  UNL1        0.0160
     24 C         138.3353  139.0216  161.3926 C.3     1  UNL1        0.0991
     25 C         138.4040  139.0150  162.8910 C.ar    1  UNL1       -0.0059
     26 C         138.8339  137.7745  163.6166 C.ar    1  UNL1        0.0002
     27 C         138.9026  137.7677  165.1150 C.ar    1  UNL1        0.0366
     28 C         138.5414  139.0015  165.8879 C.ar    1  UNL1        0.1387
     29 C         138.1115  140.2420  165.1622 C.ar    1  UNL1        0.0366
     30 C         138.0428  140.2487  163.6639 C.ar    1  UNL1        0.0002
     31 O         138.6100  138.9949  167.3862 O.3     1  UNL1       -0.4714
     32 C         139.5220  139.9487  168.0994 C.3     1  UNL1        0.2525
@<TRIPOS>BOND
     1     9    10    1
     2    10     7    1
     3     7     8    2
     4     7     1    1
     5     1    11    1
     6    11    12    1
     7    12    13   am
     8    13    14    2
     9    13    16    1
    10    16    17   ar
    11    17    18   ar
    12    18    19    1
    13    18    20   ar
    14    20    21   ar
    15    21    22    1
    16    21    23   ar
    17     1     2    1
    18     2     3    1
    19     3     4    1
    20     4    24    1
    21    24    25    1
    22    25    26   ar
    23    26    27   ar
    24    27    28   ar
    25    28    31    1
    26    31    32    1
    27    28    29   ar
    28    29    30   ar
    29     4     5    1
    30     5     6    1
    31     6     1    1
    32    23    16   ar
    33    30    25   ar
    34    12    15    1
@<TRIPOS>MOLECULE
*****
 32 34 0 0 0
SMALL
GASTEIGER

@<TRIPOS>ATOM
      1 C         138.1383  140.1218  162.2806 C.3     1  UNL1        0.1102
      2 C         137.9778  141.2162  163.2938 C.3     1  UNL1        0.0296
      3 C         138.1207  140.9118  164.7556 C.3     1  UNL1        0.0730
      4 N         138.4242  139.5130  165.2043 N.3     1  UNL1       -0.2689
      5 C         138.5848  138.4186  164.1911 C.3     1  UNL1        0.0730
      6 C         138.4419  138.7230  162.7293 C.3     1  UNL1        0.0296
      7 C         138.2011  139.4297  160.9513 C.2     1  UNL1        0.3177
      8 O         137.0993  139.6235  159.9521 O.2     1  UNL1       -0.2501
      9 C         139.9793  138.5902  159.2533 C.3     1  UNL1        0.2556
     10 O         139.3656  138.5438  160.6212 O.3     1  UNL1       -0.4444
     11 C         137.8566  141.2802  161.3703 C.3     1  UNL1        0.1002
     12 N         138.9027  141.7435  160.4003 N.am    1  UNL1       -0.3003
     13 C         139.3893  143.1618  160.4426 C.2     1  UNL1        0.2459
     14 O         138.8298  144.1167  161.4551 O.2     1  UNL1       -0.2701
     15 H         139.2699  141.1167  159.7358 H       1  UNL1        0.1498
     16 C         140.4354  143.6250  159.4726 C.ar    1  UNL1        0.0550
     17 C         141.8048  143.0136  159.4976 C.ar    1  UNL1        0.0160
     18 C         142.8509  143.4769  158.5275 C.ar    1  UNL1        0.0587
     19 CL        144.2204  142.8653  158.5526 Cl      1  UNL1       -0.0822
     20 C         142.5276  144.5516  157.5324 C.ar    1  UNL1        0.0228
     21 C         141.1581  145.1631  157.5073 C.ar    1  UNL1        0.0587
     22 CL        140.8347  146.2379  156.5122 Cl      1  UNL1       -0.0822
     23 C         140.1120  144.6999  158.4774 C.ar    1  UNL1        0.0160
     24 C         138.5672  139.2087  166.6661 C.3     1  UNL1        0.0991
     25 C         139.7694  139.6954  167.4194 C.ar    1  UNL1       -0.0059
     26 C         141.1197  139.6824  166.7662 C.ar    1  UNL1        0.0002
     27 C         142.3221  140.1691  167.5196 C.ar    1  UNL1        0.0366
     28 C         142.1742  140.6689  168.9261 C.ar    1  UNL1        0.1387
     29 C         140.8239  140.6819  169.5793 C.ar    1  UNL1        0.0366
     30 C         139.6216  140.1952  168.8260 C.ar    1  UNL1        0.0002
     31 O         143.3764  141.1556  169.6795 O.3     1  UNL1       -0.4714
     32 C         143.5268  142.6156  169.9895 C.3     1  UNL1        0.2525
@<TRIPOS>BOND
     1     9    10    1
     2    10     7    1
     3     7     8    2
     4     7     1    1
     5     1    11    1
     6    11    12    1
     7    12    13   am
     8    13    14    2
     9    13    16    1
    10    16    17   ar
    11    17    18   ar
    12    18    19    1
    13    18    20   ar
    14    20    21   ar
    15    21    22    1
    16    21    23   ar
    17     1     2    1
    18     2     3    1
    19     3     4    1
    20     4    24    1
    21    24    25    1
    22    25    26   ar
    23    26    27   ar
    24    27    28   ar
    25    28    31    1
    26    31    32    1
    27    28    29   ar
    28    29    30   ar
    29     4     5    1
    30     5     6    1
    31     6     1    1
    32    23    16   ar
    33    30    25   ar
    34    12    15    1
@<TRIPOS>MOLECULE
*****
 32 34 0 0 0
SMALL
GASTEIGER

@<TRIPOS>ATOM
      1 C         139.6037  139.2777  159.9332 C.3     1  UNL1        0.1102
      2 C         140.6440  138.4157  160.5847 C.3     1  UNL1        0.0296
      3 C         140.3934  137.8365  161.9455 C.3     1  UNL1        0.0730
      4 N         139.1023  138.1194  162.6548 N.3     1  UNL1       -0.2689
      5 C         138.0619  138.9815  162.0033 C.3     1  UNL1        0.0730
      6 C         138.3126  139.5606  160.6426 C.3     1  UNL1        0.0296
      7 C         138.9304  140.1463  158.9122 C.2     1  UNL1        0.3177
      8 O         138.4630  139.5548  157.6155 O.2     1  UNL1       -0.2501
      9 C         138.1414  142.4946  158.1296 C.3     1  UNL1        0.2556
     10 O         138.7247  141.6062  159.1881 O.3     1  UNL1       -0.4444
     11 C         140.6609  139.2964  158.8694 C.3     1  UNL1        0.1002
     12 N         140.9314  138.0635  158.0590 N.am    1  UNL1       -0.3003
     13 C         142.3065  137.8095  157.5161 C.2     1  UNL1        0.2459
     14 O         143.4111  138.7884  157.7836 O.2     1  UNL1       -0.2701
     15 H         140.2064  137.4210  157.8834 H       1  UNL1        0.1498
     16 C         142.5769  136.5766  156.7057 C.ar    1  UNL1        0.0550
     17 C         143.2848  135.4100  157.3286 C.ar    1  UNL1        0.0160
     18 C         143.5553  134.1771  156.5182 C.ar    1  UNL1        0.0587
     19 CL        144.2632  133.0105  157.1411 Cl      1  UNL1       -0.0822
     20 C         143.1179  134.1107  155.0849 C.ar    1  UNL1        0.0228
     21 C         142.4099  135.2773  154.4620 C.ar    1  UNL1        0.0587
     22 CL        141.9725  135.2110  153.0288 Cl      1  UNL1       -0.0822
     23 C         142.1395  136.5103  155.2724 C.ar    1  UNL1        0.0160
     24 C         138.8517  137.5403  164.0156 C.3     1  UNL1        0.0991
     25 C         139.1158  138.3635  165.2413 C.ar    1  UNL1       -0.0059
     26 C         138.0638  138.4859  166.3036 C.ar    1  UNL1        0.0002
     27 C         138.3280  139.3092  167.5294 C.ar    1  UNL1        0.0366
     28 C         139.6441  140.0099  167.6930 C.ar    1  UNL1        0.1387
     29 C         140.6961  139.8874  166.6307 C.ar    1  UNL1        0.0366
     30 C         140.4319  139.0642  165.4050 C.ar    1  UNL1        0.0002
     31 O         139.9083  140.8331  168.9187 O.3     1  UNL1       -0.4714
     32 C         140.0753  140.1631  170.2504 C.3     1  UNL1        0.2525
@<TRIPOS>BOND
     1     9    10    1
     2    10     7    1
     3     7     8    2
     4     7     1    1
     5     1    11    1
     6    11    12    1
     7    12    13   am
     8    13    14    2
     9    13    16    1
    10    16    17   ar
    11    17    18   ar
    12    18    19    1
    13    18    20   ar
    14    20    21   ar
    15    21    22    1
    16    21    23   ar
    17     1     2    1
    18     2     3    1
    19     3     4    1
    20     4    24    1
    21    24    25    1
    22    25    26   ar
    23    26    27   ar
    24    27    28   ar
    25    28    31    1
    26    31    32    1
    27    28    29   ar
    28    29    30   ar
    29     4     5    1
    30     5     6    1
    31     6     1    1
    32    23    16   ar
    33    30    25   ar
    34    12    15    1
@<TRIPOS>MOLECULE
*****
 32 34 0 0 0
SMALL
GASTEIGER

@<TRIPOS>ATOM
      1 C         143.1417  139.1169  159.5812 C.3     1  UNL1        0.1102
      2 C         142.8289  137.9632  160.4873 C.3     1  UNL1        0.0296
      3 C         143.2779  137.9902  161.9182 C.3     1  UNL1        0.0730
      4 N         144.0398  139.1710  162.4431 N.3     1  UNL1       -0.2689
      5 C         144.3526  140.3247  161.5370 C.3     1  UNL1        0.0730
      6 C         143.9035  140.2977  160.1060 C.3     1  UNL1        0.0296
      7 C         143.1965  139.9626  158.3435 C.2     1  UNL1        0.3177
      8 O         144.0228  139.5235  157.1711 O.2     1  UNL1       -0.2501
      9 C         142.5255  142.1216  157.0635 C.3     1  UNL1        0.2556
     10 O         142.4251  141.2473  158.2782 O.3     1  UNL1       -0.4444
     11 C         142.3989  138.2299  158.6266 C.3     1  UNL1        0.1002
     12 N         142.9760  136.9027  158.2323 N.am    1  UNL1       -0.3003
     13 C         142.4020  136.1514  157.0677 C.2     1  UNL1        0.2459
     14 O         141.2510  136.7274  156.2974 O.2     1  UNL1       -0.2701
     15 H         143.7315  136.5246  158.7379 H       1  UNL1        0.1498
     16 C         142.9791  134.8242  156.6734 C.ar    1  UNL1        0.0550
     17 C         142.6139  134.2095  155.3548 C.ar    1  UNL1        0.0160
     18 C         143.1910  132.8823  154.9606 C.ar    1  UNL1        0.0587
     19 CL        142.8256  132.2675  153.6419 Cl      1  UNL1       -0.0822
     20 C         144.1334  132.1698  155.8848 C.ar    1  UNL1        0.0228
     21 C         144.4987  132.7846  157.2034 C.ar    1  UNL1        0.0587
     22 CL        145.4411  132.0722  158.1277 Cl      1  UNL1       -0.0822
     23 C         143.9216  134.1118  157.5977 C.ar    1  UNL1        0.0160
     24 C         144.4888  139.1980  163.8740 C.3     1  UNL1        0.0991
     25 C         143.4972  139.4691  164.9663 C.ar    1  UNL1       -0.0059
     26 C         143.6252  138.7684  166.2864 C.ar    1  UNL1        0.0002
     27 C         142.6336  139.0394  167.3788 C.ar    1  UNL1        0.0366
     28 C         141.5139  140.0112  167.1510 C.ar    1  UNL1        0.1387
     29 C         141.3858  140.7119  165.8309 C.ar    1  UNL1        0.0366
     30 C         142.3775  140.4408  164.7386 C.ar    1  UNL1        0.0002
     31 O         140.5222  140.2823  168.2433 O.3     1  UNL1       -0.4714
     32 C         140.3627  141.6727  168.7832 C.3     1  UNL1        0.2525
@<TRIPOS>BOND
     1     9    10    1
     2    10     7    1
     3     7     8    2
     4     7     1    1
     5     1    11    1
     6    11    12    1
     7    12    13   am
     8    13    14    2
     9    13    16    1
    10    16    17   ar
    11    17    18   ar
    12    18    19    1
    13    18    20   ar
    14    20    21   ar
    15    21    22    1
    16    21    23   ar
    17     1     2    1
    18     2     3    1
    19     3     4    1
    20     4    24    1
    21    24    25    1
    22    25    26   ar
    23    26    27   ar
    24    27    28   ar
    25    28    31    1
    26    31    32    1
    27    28    29   ar
    28    29    30   ar
    29     4     5    1
    30     5     6    1
    31     6     1    1
    32    23    16   ar
    33    30    25   ar
    34    12    15    1
@<TRIPOS>MOLECULE
*****
 32 34 0 0 0
SMALL
GASTEIGER

@<TRIPOS>ATOM
      1 C         142.1616  143.9735  161.2802 C.3     1  UNL1        0.1102
      2 C         140.7784  144.5514  161.2269 C.3     1  UNL1        0.0296
      3 C         140.0287  144.5839  159.9281 C.3     1  UNL1        0.0730
      4 N         140.6623  144.0386  158.6826 N.3     1  UNL1       -0.2689
      5 C         142.0455  143.4608  158.7359 C.3     1  UNL1        0.0730
      6 C         142.7951  143.4282  160.0347 C.3     1  UNL1        0.0296
      7 C         143.4843  143.5318  161.8328 C.2     1  UNL1        0.3177
      8 O         144.3833  144.5237  162.5095 O.2     1  UNL1       -0.2501
      9 C         144.9080  141.5258  162.6689 C.3     1  UNL1        0.2556
     10 O         143.9080  142.0983  161.7086 O.3     1  UNL1       -0.4444
     11 C         141.9874  144.3654  162.7176 C.3     1  UNL1        0.1002
     12 N         141.6868  143.3188  163.7492 N.am    1  UNL1       -0.3003
     13 C         140.5606  143.5230  164.7188 C.2     1  UNL1        0.2459
     14 O         139.7350  144.7738  164.6567 O.2     1  UNL1       -0.2701
     15 H         142.2287  142.4979  163.7899 H       1  UNL1        0.1498
     16 C         140.2601  142.4764  165.7504 C.ar    1  UNL1        0.0550
     17 C         140.7420  142.6524  167.1599 C.ar    1  UNL1        0.0160
     18 C         140.4415  141.6058  168.1915 C.ar    1  UNL1        0.0587
     19 CL        140.9234  141.7819  169.6011 Cl      1  UNL1       -0.0822
     20 C         139.6590  140.3831  167.8137 C.ar    1  UNL1        0.0228
     21 C         139.1771  140.2070  166.4041 C.ar    1  UNL1        0.0587
     22 CL        138.3947  138.9844  166.0263 Cl      1  UNL1       -0.0822
     23 C         139.4776  141.2537  165.3725 C.ar    1  UNL1        0.0160
     24 C         139.9126  144.0711  157.3838 C.3     1  UNL1        0.0991
     25 C         138.7953  143.1010  157.1382 C.ar    1  UNL1       -0.0059
     26 C         138.7102  141.8363  157.9403 C.ar    1  UNL1        0.0002
     27 C         137.5928  140.8661  157.6948 C.ar    1  UNL1        0.0366
     28 C         136.5604  141.1607  156.6472 C.ar    1  UNL1        0.1387
     29 C         136.6455  142.4254  155.8451 C.ar    1  UNL1        0.0366
     30 C         137.7629  143.3955  156.0906 C.ar    1  UNL1        0.0002
     31 O         135.4431  140.1906  156.4017 O.3     1  UNL1       -0.4714
     32 C         134.4724  140.4319  155.2837 C.3     1  UNL1        0.2525
@<TRIPOS>BOND
     1     9    10    1
     2    10     7    1
     3     7     8    2
     4     7     1    1
     5     1    11    1
     6    11    12    1
     7    12    13   am
     8    13    14    2
     9    13    16    1
    10    16    17   ar
    11    17    18   ar
    12    18    19    1
    13    18    20   ar
    14    20    21   ar
    15    21    22    1
    16    21    23   ar
    17     1     2    1
    18     2     3    1
    19     3     4    1
    20     4    24    1
    21    24    25    1
    22    25    26   ar
    23    26    27   ar
    24    27    28   ar
    25    28    31    1
    26    31    32    1
    27    28    29   ar
    28    29    30   ar
    29     4     5    1
    30     5     6    1
    31     6     1    1
    32    23    16   ar
    33    30    25   ar
    34    12    15    1
