@<TRIPOS>MOLECULE
*****
 38 42 0 0 0
SMALL
GASTEIGER

@<TRIPOS>ATOM
      1 C         138.9463  139.4883  163.8636 C.ar    1  UNL1        0.2017
      2 C         138.3485  138.5016  164.8222 C.ar    1  UNL1        0.0843
      3 C         138.4585  138.7310  166.3004 C.ar    1  UNL1        0.2019
      4 O         137.8606  137.7442  167.2591 O.2     1  UNL1       -0.2864
      5 C         139.1662  139.9471  166.8201 C.ar    1  UNL1        0.0758
      6 C         139.2761  140.1765  168.2985 C.ar    1  UNL1        0.0359
      7 C         139.9838  141.3927  168.8181 C.ar    1  UNL1        0.1404
      8 F         140.0937  141.6221  170.2964 F       1  UNL1       -0.2042
      9 C         140.5816  142.3795  167.8595 C.ar    1  UNL1        0.0327
     10 C         140.4717  142.1501  166.3812 C.ar    1  UNL1        0.0392
     11 C         139.7640  140.9339  165.8616 C.ar    1  UNL1        0.1486
     12 O         139.6540  140.7045  164.3833 O.2     1  UNL1       -0.4487
     13 C         141.0694  143.1369  165.4227 C.ar    1  UNL1        0.0314
     14 C         140.3541  144.2907  164.7845 C.ar    1  UNL1        0.0801
     15 C         138.9154  144.6601  164.9931 C.3     1  UNL1        0.0540
     16 N         141.3301  145.0100  163.9014 N.ar    1  UNL1       -0.1739
     17 N         142.6487  144.3009  163.9936 N.ar    1  UNL1       -0.2532
     18 C         143.9073  144.6824  163.2724 C.3     1  UNL1        0.1533
     19 C         142.4876  143.1432  164.9339 C.ar    1  UNL1        0.0572
     20 C         143.5569  142.1638  165.3178 C.3     1  UNL1        0.0517
     21 N         139.4595  140.2304  161.4272 N.am    1  UNL1       -0.2766
     22 C         138.8364  139.2589  162.3853 C.2     1  UNL1        0.2844
     23 O         138.1034  138.0581  161.8651 O.2     1  UNL1       -0.2665
     24 H         139.9406  141.0186  161.7687 H       1  UNL1        0.1553
     25 C         139.1300  139.5422  156.9924 C.ar    1  UNL1        0.0836
     26 C         140.3940  139.1823  157.7153 C.ar    1  UNL1        0.0183
     27 C         140.5038  139.4117  159.1936 C.ar    1  UNL1        0.0175
     28 C         139.3497  140.0010  159.9489 C.ar    1  UNL1        0.0700
     29 C         138.0856  140.3610  159.2260 C.ar    1  UNL1        0.1131
     30 N         137.9758  140.1316  157.7478 N.ar    1  UNL1       -0.2445
     31 C         139.0201  139.3128  155.5141 C.3     1  UNL1        0.1324
     32 C         139.3707  137.9266  155.9674 C.3     1  UNL1        0.0651
     33 C         139.5030  136.8201  154.9634 C.3     1  UNL1        0.1450
     34 O         139.2846  137.0998  153.5060 O.3     1  UNL1       -0.3536
     35 C         138.9339  138.4860  153.0526 C.3     1  UNL1        0.1450
     36 C         138.8017  139.5925  154.0567 C.3     1  UNL1        0.0651
     37 C         139.6422  141.7710  154.9484 C.3     1  UNL1        0.1744
     38 O         138.7076  140.7787  155.5741 O.3     1  UNL1       -0.3502
@<TRIPOS>BOND
     1    37    38    1
     2    38    31    1
     3    31    25    1
     4    25    26   ar
     5    26    27   ar
     6    27    28   ar
     7    28    21    1
     8    21    22   am
     9    22    23    2
    10    22     1    1
    11     1     2   ar
    12     2     3   ar
    13     3     4    2
    14     3     5   ar
    15     5     6   ar
    16     6     7   ar
    17     7     8    1
    18     7     9   ar
    19     9    10   ar
    20    10    13    1
    21    13    14   ar
    22    14    15    1
    23    14    16   ar
    24    16    17   ar
    25    17    18    1
    26    17    19   ar
    27    19    20    1
    28    10    11   ar
    29    11    12   ar
    30    28    29   ar
    31    29    30   ar
    32    31    32    1
    33    32    33    1
    34    33    34    1
    35    34    35    1
    36    35    36    1
    37    36    31    1
    38    30    25   ar
    39    12     1   ar
    40    11     5   ar
    41    19    13   ar
    42    21    24    1
@<TRIPOS>MOLECULE
*****
 38 42 0 0 0
SMALL
GASTEIGER

@<TRIPOS>ATOM
      1 C         141.5975  139.4002  163.6286 C.ar    1  UNL1        0.2017
      2 C         142.1987  138.6882  164.8040 C.ar    1  UNL1        0.0843
      3 C         142.1742  139.3273  166.1607 C.ar    1  UNL1        0.2019
      4 O         142.7754  138.6152  167.3362 O.2     1  UNL1       -0.2864
      5 C         141.5484  140.6784  166.3422 C.ar    1  UNL1        0.0758
      6 C         141.5239  141.3175  167.6991 C.ar    1  UNL1        0.0359
      7 C         140.8981  142.6686  167.8805 C.ar    1  UNL1        0.1404
      8 F         140.8736  143.3076  169.2373 F       1  UNL1       -0.2042
      9 C         140.2969  143.3806  166.7051 C.ar    1  UNL1        0.0327
     10 C         140.3214  142.7415  165.3483 C.ar    1  UNL1        0.0392
     11 C         140.9472  141.3904  165.1668 C.ar    1  UNL1        0.1486
     12 O         140.9717  140.7513  163.8100 O.2     1  UNL1       -0.4487
     13 C         139.7202  143.4535  164.1729 C.ar    1  UNL1        0.0314
     14 C         138.4123  143.1234  163.5167 C.ar    1  UNL1        0.0801
     15 C         137.4761  142.0233  163.9208 C.3     1  UNL1        0.0540
     16 N         138.2050  144.0865  162.3856 N.ar    1  UNL1       -0.1739
     17 N         139.3848  145.0119  162.3427 N.ar    1  UNL1       -0.2532
     18 C         139.5918  146.1319  161.3665 C.3     1  UNL1        0.1533
     19 C         140.3212  144.6207  163.4473 C.ar    1  UNL1        0.0572
     20 C         141.6291  145.2807  163.7697 C.3     1  UNL1        0.0517
     21 N         141.7169  139.6150  161.0422 N.am    1  UNL1       -0.2766
     22 C         141.6220  138.7611  162.2717 C.2     1  UNL1        0.2844
     23 O         141.5516  137.2682  162.1445 O.2     1  UNL1       -0.2665
     24 H         141.7631  140.5948  161.1257 H       1  UNL1        0.1553
     25 C         141.7904  137.6978  156.9717 C.ar    1  UNL1        0.0836
     26 C         140.4801  138.0507  157.6109 C.ar    1  UNL1        0.0183
     27 C         140.4557  138.6898  158.9677 C.ar    1  UNL1        0.0175
     28 C         141.7414  138.9759  159.6853 C.ar    1  UNL1        0.0700
     29 C         143.0517  138.6229  159.0461 C.ar    1  UNL1        0.1131
     30 N         143.0762  137.9839  157.6892 N.ar    1  UNL1       -0.2445
     31 C         141.8149  137.0587  155.6148 C.3     1  UNL1        0.1324
     32 C         142.4749  135.9807  156.4224 C.3     1  UNL1        0.0651
     33 C         142.9272  134.7151  155.7565 C.3     1  UNL1        0.1450
     34 O         142.7196  134.5274  154.2828 O.3     1  UNL1       -0.3536
     35 C         142.0596  135.6055  153.4751 C.3     1  UNL1        0.1450
     36 C         141.6073  136.8711  154.1411 C.3     1  UNL1        0.0651
     37 C         141.8289  139.3407  154.3729 C.3     1  UNL1        0.1744
     38 O         141.1464  138.3586  155.2784 O.3     1  UNL1       -0.3502
@<TRIPOS>BOND
     1    37    38    1
     2    38    31    1
     3    31    25    1
     4    25    26   ar
     5    26    27   ar
     6    27    28   ar
     7    28    21    1
     8    21    22   am
     9    22    23    2
    10    22     1    1
    11     1     2   ar
    12     2     3   ar
    13     3     4    2
    14     3     5   ar
    15     5     6   ar
    16     6     7   ar
    17     7     8    1
    18     7     9   ar
    19     9    10   ar
    20    10    13    1
    21    13    14   ar
    22    14    15    1
    23    14    16   ar
    24    16    17   ar
    25    17    18    1
    26    17    19   ar
    27    19    20    1
    28    10    11   ar
    29    11    12   ar
    30    28    29   ar
    31    29    30   ar
    32    31    32    1
    33    32    33    1
    34    33    34    1
    35    34    35    1
    36    35    36    1
    37    36    31    1
    38    30    25   ar
    39    12     1   ar
    40    11     5   ar
    41    19    13   ar
    42    21    24    1
@<TRIPOS>MOLECULE
*****
 38 42 0 0 0
SMALL
GASTEIGER

@<TRIPOS>ATOM
      1 C         143.0262  140.0383  162.8029 C.ar    1  UNL1        0.2017
      2 C         143.5413  139.0830  163.8382 C.ar    1  UNL1        0.0843
      3 C         142.9490  139.0796  165.2163 C.ar    1  UNL1        0.2019
      4 O         143.4641  138.1242  166.2517 O.2     1  UNL1       -0.2864
      5 C         141.8415  140.0315  165.5589 C.ar    1  UNL1        0.0758
      6 C         141.2491  140.0280  166.9371 C.ar    1  UNL1        0.0359
      7 C         140.1417  140.9799  167.2798 C.ar    1  UNL1        0.1404
      8 F         139.5493  140.9765  168.6578 F       1  UNL1       -0.2042
      9 C         139.6266  141.9353  166.2443 C.ar    1  UNL1        0.0327
     10 C         140.2189  141.9387  164.8663 C.ar    1  UNL1        0.0392
     11 C         141.3264  140.9868  164.5236 C.ar    1  UNL1        0.1486
     12 O         141.9187  140.9902  163.1455 O.2     1  UNL1       -0.4487
     13 C         139.7038  142.8939  163.8309 C.ar    1  UNL1        0.0314
     14 C         138.4550  142.7234  163.0175 C.ar    1  UNL1        0.0801
     15 C         137.5022  141.5676  163.0967 C.3     1  UNL1        0.0540
     16 N         138.3264  143.9116  162.1110 N.ar    1  UNL1       -0.1739
     17 N         139.4957  144.8165  162.3641 N.ar    1  UNL1       -0.2532
     18 C         139.7662  146.1212  161.6752 C.3     1  UNL1        0.1533
     19 C         140.3470  144.1875  163.4271 C.ar    1  UNL1        0.0572
     20 C         141.6182  144.7529  163.9878 C.3     1  UNL1        0.0517
     21 N         143.3943  141.2130  160.5149 N.am    1  UNL1       -0.2766
     22 C         143.6185  140.0417  161.4247 C.2     1  UNL1        0.2844
     23 O         144.4350  138.8738  160.9564 O.2     1  UNL1       -0.2665
     24 H         142.8584  141.9795  160.8223 H       1  UNL1        0.1553
     25 C         145.1714  141.2234  156.3807 C.ar    1  UNL1        0.0836
     26 C         145.3806  142.3979  157.2899 C.ar    1  UNL1        0.0183
     27 C         144.7882  142.3944  158.6679 C.ar    1  UNL1        0.0175
     28 C         143.9867  141.2164  159.1368 C.ar    1  UNL1        0.0700
     29 C         143.7775  140.0419  158.2276 C.ar    1  UNL1        0.1131
     30 N         144.3698  140.0454  156.8496 N.ar    1  UNL1       -0.2445
     31 C         145.7637  141.2268  155.0025 C.3     1  UNL1        0.1324
     32 C         146.9764  141.5880  155.8082 C.3     1  UNL1        0.0651
     33 C         148.2887  141.8267  155.1222 C.3     1  UNL1        0.1450
     34 O         148.3885  141.7043  153.6306 O.3     1  UNL1       -0.3536
     35 C         147.1759  141.3432  152.8249 C.3     1  UNL1        0.1450
     36 C         145.8635  141.1044  153.5109 C.3     1  UNL1        0.0651
     37 C         143.5685  141.6884  153.6918 C.3     1  UNL1        0.1744
     38 O         144.3454  140.8645  154.6755 O.3     1  UNL1       -0.3502
@<TRIPOS>BOND
     1    37    38    1
     2    38    31    1
     3    31    25    1
     4    25    26   ar
     5    26    27   ar
     6    27    28   ar
     7    28    21    1
     8    21    22   am
     9    22    23    2
    10    22     1    1
    11     1     2   ar
    12     2     3   ar
    13     3     4    2
    14     3     5   ar
    15     5     6   ar
    16     6     7   ar
    17     7     8    1
    18     7     9   ar
    19     9    10   ar
    20    10    13    1
    21    13    14   ar
    22    14    15    1
    23    14    16   ar
    24    16    17   ar
    25    17    18    1
    26    17    19   ar
    27    19    20    1
    28    10    11   ar
    29    11    12   ar
    30    28    29   ar
    31    29    30   ar
    32    31    32    1
    33    32    33    1
    34    33    34    1
    35    34    35    1
    36    35    36    1
    37    36    31    1
    38    30    25   ar
    39    12     1   ar
    40    11     5   ar
    41    19    13   ar
    42    21    24    1
@<TRIPOS>MOLECULE
*****
 38 42 0 0 0
SMALL
GASTEIGER

@<TRIPOS>ATOM
      1 C         139.0367  140.4709  164.1874 C.ar    1  UNL1        0.2017
      2 C         138.1937  139.8639  165.2694 C.ar    1  UNL1        0.0843
      3 C         138.7926  139.5763  166.6142 C.ar    1  UNL1        0.2019
      4 O         137.9496  138.9692  167.6964 O.2     1  UNL1       -0.2864
      5 C         140.2344  139.8957  166.8770 C.ar    1  UNL1        0.0758
      6 C         140.8333  139.6081  168.2220 C.ar    1  UNL1        0.0359
      7 C         142.2751  139.9275  168.4847 C.ar    1  UNL1        0.1404
      8 F         142.8740  139.6399  169.8296 F       1  UNL1       -0.2042
      9 C         143.1181  140.5346  167.4026 C.ar    1  UNL1        0.0327
     10 C         142.5192  140.8222  166.0578 C.ar    1  UNL1        0.0392
     11 C         141.0774  140.5028  165.7950 C.ar    1  UNL1        0.1486
     12 O         140.4785  140.7904  164.4502 O.2     1  UNL1       -0.4487
     13 C         143.3622  141.4293  164.9758 C.ar    1  UNL1        0.0314
     14 C         144.5202  140.7708  164.2862 C.ar    1  UNL1        0.0801
     15 C         145.0384  139.3896  164.5577 C.3     1  UNL1        0.0540
     16 N         145.0689  141.7359  163.2775 N.ar    1  UNL1       -0.1739
     17 N         144.2501  142.9910  163.3437 N.ar    1  UNL1       -0.2532
     18 C         144.4508  144.2198  162.5072 C.3     1  UNL1        0.1533
     19 C         143.1952  142.8015  164.3933 C.ar    1  UNL1        0.0572
     20 C         142.1560  143.8075  164.7905 C.3     1  UNL1        0.0517
     21 N         139.2992  140.7236  161.6150 N.am    1  UNL1       -0.2766
     22 C         138.4378  140.7585  162.8425 C.2     1  UNL1        0.2844
     23 O         136.9776  141.0811  162.7252 O.2     1  UNL1       -0.2665
     24 H         140.2576  140.5119  161.6920 H       1  UNL1        0.1553
     25 C         137.5027  141.5866  157.5804 C.ar    1  UNL1        0.0836
     26 C         138.1624  142.6863  158.3584 C.ar    1  UNL1        0.0183
     27 C         138.7612  142.3987  159.7032 C.ar    1  UNL1        0.0175
     28 C         138.7003  141.0112  160.2700 C.ar    1  UNL1        0.0700
     29 C         138.0407  139.9115  159.4921 C.ar    1  UNL1        0.1131
     30 N         137.4419  140.1991  158.1472 N.ar    1  UNL1       -0.2445
     31 C         136.9039  141.8742  156.2355 C.3     1  UNL1        0.1324
     32 C         137.8399  143.0399  156.3585 C.3     1  UNL1        0.0651
     33 C         137.9242  144.0536  155.2562 C.3     1  UNL1        0.1450
     34 O         137.0726  143.9018  154.0308 O.3     1  UNL1       -0.3536
     35 C         136.1366  142.7361  153.9078 C.3     1  UNL1        0.1450
     36 C         136.0522  141.7223  155.0101 C.3     1  UNL1        0.0651
     37 C         134.7197  140.4674  156.2484 C.3     1  UNL1        0.1744
     38 O         136.1759  140.6087  156.5795 O.3     1  UNL1       -0.3502
@<TRIPOS>BOND
     1    37    38    1
     2    38    31    1
     3    31    25    1
     4    25    26   ar
     5    26    27   ar
     6    27    28   ar
     7    28    21    1
     8    21    22   am
     9    22    23    2
    10    22     1    1
    11     1     2   ar
    12     2     3   ar
    13     3     4    2
    14     3     5   ar
    15     5     6   ar
    16     6     7   ar
    17     7     8    1
    18     7     9   ar
    19     9    10   ar
    20    10    13    1
    21    13    14   ar
    22    14    15    1
    23    14    16   ar
    24    16    17   ar
    25    17    18    1
    26    17    19   ar
    27    19    20    1
    28    10    11   ar
    29    11    12   ar
    30    28    29   ar
    31    29    30   ar
    32    31    32    1
    33    32    33    1
    34    33    34    1
    35    34    35    1
    36    35    36    1
    37    36    31    1
    38    30    25   ar
    39    12     1   ar
    40    11     5   ar
    41    19    13   ar
    42    21    24    1
@<TRIPOS>MOLECULE
*****
 38 42 0 0 0
SMALL
GASTEIGER

@<TRIPOS>ATOM
      1 C         140.1102  144.4328  162.8810 C.ar    1  UNL1        0.2017
      2 C         139.1854  145.1263  163.8368 C.ar    1  UNL1        0.0843
      3 C         139.1291  144.6949  165.2723 C.ar    1  UNL1        0.2019
      4 O         138.2042  145.3885  166.2282 O.2     1  UNL1       -0.2864
      5 C         139.9978  143.5701  165.7520 C.ar    1  UNL1        0.0758
      6 C         139.9416  143.1387  167.1876 C.ar    1  UNL1        0.0359
      7 C         140.8102  142.0139  167.6673 C.ar    1  UNL1        0.1404
      8 F         140.7540  141.5825  169.1028 F       1  UNL1       -0.2042
      9 C         141.7351  141.3204  166.7114 C.ar    1  UNL1        0.0327
     10 C         141.7914  141.7517  165.2759 C.ar    1  UNL1        0.0392
     11 C         140.9227  142.8766  164.7962 C.ar    1  UNL1        0.1486
     12 O         140.9789  143.3080  163.3607 O.2     1  UNL1       -0.4487
     13 C         142.7162  141.0582  164.3201 C.ar    1  UNL1        0.0314
     14 C         144.1118  141.4872  163.9755 C.ar    1  UNL1        0.0801
     15 C         144.8272  142.6850  164.5263 C.3     1  UNL1        0.0540
     16 N         144.6661  140.5081  162.9835 N.ar    1  UNL1       -0.1739
     17 N         143.6132  139.4740  162.7149 N.ar    1  UNL1       -0.2532
     18 C         143.7426  138.3051  161.7838 C.3     1  UNL1        0.1533
     19 C         142.4081  139.8140  163.5410 C.ar    1  UNL1        0.0572
     20 C         141.1210  139.0448  163.5810 C.3     1  UNL1        0.0517
     21 N         140.8383  143.9925  160.4261 N.am    1  UNL1       -0.2766
     22 C         140.1665  144.8642  161.4454 C.2     1  UNL1        0.2844
     23 O         139.5510  146.1672  161.0291 O.2     1  UNL1       -0.2665
     24 H         141.2422  143.1373  160.6994 H       1  UNL1        0.1553
     25 C         141.0071  145.2866  156.1196 C.ar    1  UNL1        0.0836
     26 C         141.9651  145.8693  157.1158 C.ar    1  UNL1        0.0183
     27 C         141.9088  145.4379  158.5513 C.ar    1  UNL1        0.0175
     28 C         140.8945  144.4239  158.9906 C.ar    1  UNL1        0.0700
     29 C         139.9365  143.8411  157.9943 C.ar    1  UNL1        0.1131
     30 N         139.9928  144.2725  156.5588 N.ar    1  UNL1       -0.2445
     31 C         141.0633  145.7179  154.6840 C.3     1  UNL1        0.1324
     32 C         142.4265  145.1082  154.8264 C.3     1  UNL1        0.0651
     33 C         143.3656  145.0895  153.6570 C.3     1  UNL1        0.1450
     34 O         142.9417  145.6806  152.3451 O.3     1  UNL1       -0.3536
     35 C         141.5786  146.2903  152.2027 C.3     1  UNL1        0.1450
     36 C         140.6395  146.3090  153.3721 C.3     1  UNL1        0.0651
     37 C         139.3374  147.6368  154.9817 C.3     1  UNL1        0.1744
     38 O         139.6808  146.1778  155.0401 O.3     1  UNL1       -0.3502
@<TRIPOS>BOND
     1    37    38    1
     2    38    31    1
     3    31    25    1
     4    25    26   ar
     5    26    27   ar
     6    27    28   ar
     7    28    21    1
     8    21    22   am
     9    22    23    2
    10    22     1    1
    11     1     2   ar
    12     2     3   ar
    13     3     4    2
    14     3     5   ar
    15     5     6   ar
    16     6     7   ar
    17     7     8    1
    18     7     9   ar
    19     9    10   ar
    20    10    13    1
    21    13    14   ar
    22    14    15    1
    23    14    16   ar
    24    16    17   ar
    25    17    18    1
    26    17    19   ar
    27    19    20    1
    28    10    11   ar
    29    11    12   ar
    30    28    29   ar
    31    29    30   ar
    32    31    32    1
    33    32    33    1
    34    33    34    1
    35    34    35    1
    36    35    36    1
    37    36    31    1
    38    30    25   ar
    39    12     1   ar
    40    11     5   ar
    41    19    13   ar
    42    21    24    1
@<TRIPOS>MOLECULE
*****
 38 42 0 0 0
SMALL
GASTEIGER

@<TRIPOS>ATOM
      1 C         140.0729  143.3805  163.1863 C.ar    1  UNL1        0.2017
      2 C         139.6483  144.2148  164.3583 C.ar    1  UNL1        0.0843
      3 C         139.6677  143.6318  165.7402 C.ar    1  UNL1        0.2019
      4 O         139.2430  144.4661  166.9123 O.2     1  UNL1       -0.2864
      5 C         140.1117  142.2145  165.9501 C.ar    1  UNL1        0.0758
      6 C         140.1310  141.6315  167.3321 C.ar    1  UNL1        0.0359
      7 C         140.5750  140.2141  167.5420 C.ar    1  UNL1        0.1404
      8 F         140.5944  139.6311  168.9239 F       1  UNL1       -0.2042
      9 C         140.9997  139.3798  166.3699 C.ar    1  UNL1        0.0327
     10 C         140.9803  139.9629  164.9880 C.ar    1  UNL1        0.0392
     11 C         140.5363  141.3802  164.7781 C.ar    1  UNL1        0.1486
     12 O         140.5169  141.9632  163.3962 O.2     1  UNL1       -0.4487
     13 C         141.4050  139.1286  163.8160 C.ar    1  UNL1        0.0314
     14 C         140.5290  138.1938  163.0356 C.ar    1  UNL1        0.0801
     15 C         139.0746  137.9294  163.2902 C.3     1  UNL1        0.0540
     16 N         141.3627  137.5701  161.9559 N.ar    1  UNL1       -0.1739
     17 N         142.7541  138.1192  162.0690 N.ar    1  UNL1       -0.2532
     18 C         143.9153  137.7671  161.1873 C.3     1  UNL1        0.1533
     19 C         142.7801  139.0825  163.2187 C.ar    1  UNL1        0.0572
     20 C         143.9721  139.8626  163.6884 C.3     1  UNL1        0.0517
     21 N         140.9024  143.3612  160.7243 N.am    1  UNL1       -0.2766
     22 C         140.0536  143.9636  161.8044 C.2     1  UNL1        0.2844
     23 O         139.1854  145.1490  161.5025 O.2     1  UNL1       -0.2665
     24 H         141.4722  142.5832  160.9224 H       1  UNL1        0.1553
     25 C         140.8443  145.1101  156.5785 C.ar    1  UNL1        0.0836
     26 C         140.0563  143.8700  156.8804 C.ar    1  UNL1        0.0183
     27 C         140.0757  143.2871  158.2623 C.ar    1  UNL1        0.0175
     28 C         140.8830  143.9442  159.3423 C.ar    1  UNL1        0.0700
     29 C         141.6710  145.1843  159.0404 C.ar    1  UNL1        0.1131
     30 N         141.6516  145.7673  157.6584 N.ar    1  UNL1       -0.2445
     31 C         140.8249  145.6932  155.1965 C.3     1  UNL1        0.1324
     32 C         142.1738  145.0371  155.1836 C.3     1  UNL1        0.0651
     33 C         143.0372  145.1215  153.9599 C.3     1  UNL1        0.1450
     34 O         142.5518  145.8620  152.7492 O.3     1  UNL1       -0.3536
     35 C         141.2029  146.5181  152.7621 C.3     1  UNL1        0.1450
     36 C         140.3395  146.4337  153.9857 C.3     1  UNL1        0.0651
     37 C         139.1126  147.5990  155.6272 C.3     1  UNL1        0.1744
     38 O         139.4828  146.1467  155.6893 O.3     1  UNL1       -0.3502
@<TRIPOS>BOND
     1    37    38    1
     2    38    31    1
     3    31    25    1
     4    25    26   ar
     5    26    27   ar
     6    27    28   ar
     7    28    21    1
     8    21    22   am
     9    22    23    2
    10    22     1    1
    11     1     2   ar
    12     2     3   ar
    13     3     4    2
    14     3     5   ar
    15     5     6   ar
    16     6     7   ar
    17     7     8    1
    18     7     9   ar
    19     9    10   ar
    20    10    13    1
    21    13    14   ar
    22    14    15    1
    23    14    16   ar
    24    16    17   ar
    25    17    18    1
    26    17    19   ar
    27    19    20    1
    28    10    11   ar
    29    11    12   ar
    30    28    29   ar
    31    29    30   ar
    32    31    32    1
    33    32    33    1
    34    33    34    1
    35    34    35    1
    36    35    36    1
    37    36    31    1
    38    30    25   ar
    39    12     1   ar
    40    11     5   ar
    41    19    13   ar
    42    21    24    1
@<TRIPOS>MOLECULE
*****
 38 42 0 0 0
SMALL
GASTEIGER

@<TRIPOS>ATOM
      1 C         138.8039  139.5730  163.6239 C.ar    1  UNL1        0.2017
      2 C         138.3113  138.5440  164.5978 C.ar    1  UNL1        0.0843
      3 C         138.4988  138.7552  166.0709 C.ar    1  UNL1        0.2019
      4 O         138.0062  137.7261  167.0449 O.2     1  UNL1       -0.2864
      5 C         139.1789  139.9954  166.5702 C.ar    1  UNL1        0.0758
      6 C         139.3664  140.2066  168.0435 C.ar    1  UNL1        0.0359
      7 C         140.0465  141.4468  168.5427 C.ar    1  UNL1        0.1404
      8 F         140.2340  141.6580  170.0159 F       1  UNL1       -0.2042
      9 C         140.5391  142.4759  167.5688 C.ar    1  UNL1        0.0327
     10 C         140.3516  142.2647  166.0957 C.ar    1  UNL1        0.0392
     11 C         139.6715  141.0244  165.5964 C.ar    1  UNL1        0.1486
     12 O         139.4840  140.8132  164.1232 O.2     1  UNL1       -0.4487
     13 C         140.8442  143.2937  165.1218 C.ar    1  UNL1        0.0314
     14 C         142.2787  143.5687  164.7799 C.ar    1  UNL1        0.0801
     15 C         143.4722  142.8628  165.3518 C.3     1  UNL1        0.0540
     16 N         142.3099  144.6733  163.7657 N.ar    1  UNL1       -0.1739
     17 N         140.8948  145.0812  163.4807 N.ar    1  UNL1       -0.2532
     18 C         140.4616  146.1534  162.5253 C.3     1  UNL1        0.1533
     19 C         139.9889  144.2285  164.3189 C.ar    1  UNL1        0.0572
     20 C         138.4909  144.2983  164.3488 C.3     1  UNL1        0.0517
     21 N         139.3400  140.2358  161.1697 N.am    1  UNL1       -0.2766
     22 C         138.6164  139.3618  162.1507 C.2     1  UNL1        0.2844
     23 O         137.7053  138.2766  161.6586 O.2     1  UNL1       -0.2665
     24 H         139.9380  140.9481  161.4927 H       1  UNL1        0.1553
     25 C         138.7777  139.6023  156.7502 C.ar    1  UNL1        0.0836
     26 C         140.0029  139.0720  157.4339 C.ar    1  UNL1        0.0183
     27 C         140.1903  139.2832  158.9071 C.ar    1  UNL1        0.0175
     28 C         139.1525  140.0247  159.6965 C.ar    1  UNL1        0.0700
     29 C         137.9273  140.5550  159.0127 C.ar    1  UNL1        0.1131
     30 N         137.7399  140.3438  157.5396 N.ar    1  UNL1       -0.2445
     31 C         138.5902  139.3911  155.2769 C.3     1  UNL1        0.1324
     32 C         138.6759  140.8882  155.3167 C.3     1  UNL1        0.0651
     33 C         138.5670  141.6796  154.0472 C.3     1  UNL1        0.1450
     34 O         138.3724  140.9740  152.7379 O.3     1  UNL1       -0.3536
     35 C         138.2866  139.4770  152.6981 C.3     1  UNL1        0.1450
     36 C         138.3955  138.6855  153.9676 C.3     1  UNL1        0.0651
     37 C         139.1890  136.8899  154.9091 C.3     1  UNL1        0.1744
     38 O         138.5696  137.9675  155.7488 O.3     1  UNL1       -0.3502
@<TRIPOS>BOND
     1    37    38    1
     2    38    31    1
     3    31    25    1
     4    25    26   ar
     5    26    27   ar
     6    27    28   ar
     7    28    21    1
     8    21    22   am
     9    22    23    2
    10    22     1    1
    11     1     2   ar
    12     2     3   ar
    13     3     4    2
    14     3     5   ar
    15     5     6   ar
    16     6     7   ar
    17     7     8    1
    18     7     9   ar
    19     9    10   ar
    20    10    13    1
    21    13    14   ar
    22    14    15    1
    23    14    16   ar
    24    16    17   ar
    25    17    18    1
    26    17    19   ar
    27    19    20    1
    28    10    11   ar
    29    11    12   ar
    30    28    29   ar
    31    29    30   ar
    32    31    32    1
    33    32    33    1
    34    33    34    1
    35    34    35    1
    36    35    36    1
    37    36    31    1
    38    30    25   ar
    39    12     1   ar
    40    11     5   ar
    41    19    13   ar
    42    21    24    1
@<TRIPOS>MOLECULE
*****
 38 42 0 0 0
SMALL
GASTEIGER

@<TRIPOS>ATOM
      1 C         140.4183  142.1552  160.8245 C.ar    1  UNL1        0.2017
      2 C         139.9651  143.5379  160.4604 C.ar    1  UNL1        0.0843
      3 C         139.5539  144.4998  161.5354 C.ar    1  UNL1        0.2019
      4 O         139.1007  145.8826  161.1712 O.2     1  UNL1       -0.2864
      5 C         139.5958  144.0789  162.9745 C.ar    1  UNL1        0.0758
      6 C         139.1845  145.0408  164.0495 C.ar    1  UNL1        0.0359
      7 C         139.2264  144.6199  165.4886 C.ar    1  UNL1        0.1404
      8 F         138.8151  145.5818  166.5636 F       1  UNL1       -0.2042
      9 C         139.6795  143.2371  165.8527 C.ar    1  UNL1        0.0327
     10 C         140.0908  142.2752  164.7777 C.ar    1  UNL1        0.0392
     11 C         140.0489  142.6961  163.3386 C.ar    1  UNL1        0.1486
     12 O         140.4602  141.7343  162.2636 O.2     1  UNL1       -0.4487
     13 C         140.5440  140.8925  165.1419 C.ar    1  UNL1        0.0314
     14 C         139.6560  139.7056  165.3720 C.ar    1  UNL1        0.0801
     15 C         138.1590  139.6932  165.2783 C.3     1  UNL1        0.0540
     16 N         140.5278  138.5334  165.7122 N.ar    1  UNL1       -0.1739
     17 N         141.9547  138.9957  165.6924 N.ar    1  UNL1       -0.2532
     18 C         143.1600  138.1488  165.9753 C.3     1  UNL1        0.1533
     19 C         141.9646  140.4538  165.3399 C.ar    1  UNL1        0.0572
     20 C         143.1816  141.3208  165.2085 C.3     1  UNL1        0.0517
     21 N         140.5994  139.7222  159.9311 N.am    1  UNL1       -0.2766
     22 C         140.8296  141.1932  159.7495 C.2     1  UNL1        0.2844
     23 O         141.4711  141.7024  158.4928 O.2     1  UNL1       -0.2665
     24 H         140.1783  139.3880  160.7559 H       1  UNL1        0.1553
     25 C         141.8331  136.8365  156.7062 C.ar    1  UNL1        0.0836
     26 C         140.4055  137.2863  156.8040 C.ar    1  UNL1        0.0183
     27 C         139.9943  138.2482  157.8790 C.ar    1  UNL1        0.0175
     28 C         141.0107  138.7603  158.8561 C.ar    1  UNL1        0.0700
     29 C         142.4383  138.3105  158.7583 C.ar    1  UNL1        0.1131
     30 N         142.8495  137.3486  157.6833 N.ar    1  UNL1       -0.2445
     31 C         142.2444  135.8746  155.6312 C.3     1  UNL1        0.1324
     32 C         142.6755  135.1075  156.8460 C.3     1  UNL1        0.0651
     33 C         143.3185  133.7609  156.6936 C.3     1  UNL1        0.1450
     34 O         143.5305  133.1814  155.3264 O.3     1  UNL1       -0.3536
     35 C         143.0994  133.9485  154.1116 C.3     1  UNL1        0.1450
     36 C         142.4564  135.2951  154.2640 C.3     1  UNL1        0.0651
     37 C         142.5623  137.7656  153.8783 C.3     1  UNL1        0.1744
     38 O         141.6705  136.9757  154.7897 O.3     1  UNL1       -0.3502
@<TRIPOS>BOND
     1    37    38    1
     2    38    31    1
     3    31    25    1
     4    25    26   ar
     5    26    27   ar
     6    27    28   ar
     7    28    21    1
     8    21    22   am
     9    22    23    2
    10    22     1    1
    11     1     2   ar
    12     2     3   ar
    13     3     4    2
    14     3     5   ar
    15     5     6   ar
    16     6     7   ar
    17     7     8    1
    18     7     9   ar
    19     9    10   ar
    20    10    13    1
    21    13    14   ar
    22    14    15    1
    23    14    16   ar
    24    16    17   ar
    25    17    18    1
    26    17    19   ar
    27    19    20    1
    28    10    11   ar
    29    11    12   ar
    30    28    29   ar
    31    29    30   ar
    32    31    32    1
    33    32    33    1
    34    33    34    1
    35    34    35    1
    36    35    36    1
    37    36    31    1
    38    30    25   ar
    39    12     1   ar
    40    11     5   ar
    41    19    13   ar
    42    21    24    1
@<TRIPOS>MOLECULE
*****
 38 42 0 0 0
SMALL
GASTEIGER

@<TRIPOS>ATOM
      1 C         142.3352  140.4004  159.5357 C.ar    1  UNL1        0.2017
      2 C         142.6697  141.6650  158.8016 C.ar    1  UNL1        0.0843
      3 C         142.6155  142.9832  159.5152 C.ar    1  UNL1        0.2019
      4 O         142.9500  144.2479  158.7811 O.2     1  UNL1       -0.2864
      5 C         142.2268  143.0368  160.9630 C.ar    1  UNL1        0.0758
      6 C         142.1726  144.3551  161.6767 C.ar    1  UNL1        0.0359
      7 C         141.7840  144.4087  163.1245 C.ar    1  UNL1        0.1404
      8 F         141.7298  145.7269  163.8381 F       1  UNL1       -0.2042
      9 C         141.4495  143.1441  163.8586 C.ar    1  UNL1        0.0327
     10 C         141.5037  141.8259  163.1449 C.ar    1  UNL1        0.0392
     11 C         141.8924  141.7723  161.6971 C.ar    1  UNL1        0.1486
     12 O         141.9466  140.4541  160.9834 O.2     1  UNL1       -0.4487
     13 C         141.1692  140.5613  163.8790 C.ar    1  UNL1        0.0314
     14 C         142.1546  139.6096  164.4901 C.ar    1  UNL1        0.0801
     15 C         143.6474  139.7555  164.4743 C.3     1  UNL1        0.0540
     16 N         141.3851  138.4865  165.1197 N.ar    1  UNL1       -0.1739
     17 N         139.9241  138.7440  164.8978 N.ar    1  UNL1       -0.2532
     18 C         138.7948  137.8723  165.3612 C.3     1  UNL1        0.1533
     19 C         139.7907  140.0264  164.1309 C.ar    1  UNL1        0.0572
     20 C         138.5046  140.6620  163.6930 C.3     1  UNL1        0.0517
     21 N         142.3253  139.0370  157.3241 N.am    1  UNL1       -0.2766
     22 C         142.3894  139.0821  158.8220 C.2     1  UNL1        0.2844
     23 O         142.5078  137.8090  159.6063 O.2     1  UNL1       -0.2665
     24 H         142.2476  139.8726  156.8093 H       1  UNL1        0.1553
     25 C         142.4880  135.0823  155.1831 C.ar    1  UNL1        0.0836
     26 C         143.7343  135.9020  155.3401 C.ar    1  UNL1        0.0183
     27 C         143.6801  137.2202  156.0537 C.ar    1  UNL1        0.0175
     28 C         142.3795  137.7187  156.6104 C.ar    1  UNL1        0.0700
     29 C         141.1331  136.8991  156.4534 C.ar    1  UNL1        0.1131
     30 N         141.1874  135.5809  155.7398 N.ar    1  UNL1       -0.2445
     31 C         142.5422  133.7640  154.4695 C.3     1  UNL1        0.1324
     32 C         143.5245  133.5035  155.5728 C.3     1  UNL1        0.0651
     33 C         144.2133  132.1743  155.6654 C.3     1  UNL1        0.1450
     34 O         143.9198  131.1055  154.6547 O.3     1  UNL1       -0.3536
     35 C         142.9375  131.3660  153.5513 C.3     1  UNL1        0.1450
     36 C         142.2487  132.6952  153.4587 C.3     1  UNL1        0.0651
     37 C         141.7259  134.5343  152.1264 C.3     1  UNL1        0.1744
     38 O         141.5411  134.4823  153.6140 O.3     1  UNL1       -0.3502
@<TRIPOS>BOND
     1    37    38    1
     2    38    31    1
     3    31    25    1
     4    25    26   ar
     5    26    27   ar
     6    27    28   ar
     7    28    21    1
     8    21    22   am
     9    22    23    2
    10    22     1    1
    11     1     2   ar
    12     2     3   ar
    13     3     4    2
    14     3     5   ar
    15     5     6   ar
    16     6     7   ar
    17     7     8    1
    18     7     9   ar
    19     9    10   ar
    20    10    13    1
    21    13    14   ar
    22    14    15    1
    23    14    16   ar
    24    16    17   ar
    25    17    18    1
    26    17    19   ar
    27    19    20    1
    28    10    11   ar
    29    11    12   ar
    30    28    29   ar
    31    29    30   ar
    32    31    32    1
    33    32    33    1
    34    33    34    1
    35    34    35    1
    36    35    36    1
    37    36    31    1
    38    30    25   ar
    39    12     1   ar
    40    11     5   ar
    41    19    13   ar
    42    21    24    1
