@<TRIPOS>MOLECULE
*****
 42 46 0 0 0
SMALL
GASTEIGER

@<TRIPOS>ATOM
      1 C         142.5867  139.4962  158.7790 C.ar    1  UNL1        0.0035
      2 C         143.5255  140.5622  158.2970 C.ar    1  UNL1        0.0295
      3 C         143.9848  141.6378  159.2363 C.ar    1  UNL1        0.1416
      4 F         144.9236  142.7038  158.7542 F       1  UNL1       -0.2041
      5 C         143.5053  141.6474  160.6575 C.ar    1  UNL1        0.0486
      6 C         142.5665  140.5815  161.1395 C.ar    1  UNL1        0.0866
      7 C         142.1072  139.5059  160.2003 C.ar    1  UNL1        0.0250
      8 N         142.0869  140.5911  162.5608 N.ar    1  UNL1       -0.1945
      9 N         140.8157  141.3023  162.9186 N.ar    1  UNL1       -0.1610
     10 C         140.3362  141.3120  164.3399 C.ar    1  UNL1        0.1208
     11 C         141.1280  140.6104  165.4033 C.ar    1  UNL1        0.0274
     12 C         140.6485  140.6201  166.8246 C.ar    1  UNL1       -0.0024
     13 C         141.4402  139.9185  167.8880 C.ar    1  UNL1       -0.0205
     14 C         142.7115  139.2072  167.5302 C.ar    1  UNL1        0.0255
     15 C         143.1910  139.1976  166.1089 C.ar    1  UNL1        0.1445
     16 F         144.4622  138.4864  165.7511 F       1  UNL1       -0.2040
     17 C         142.3992  139.8992  165.0455 C.ar    1  UNL1        0.0868
     18 C         142.8787  139.8895  163.6243 C.ar    1  UNL1        0.2825
     19 O         144.1500  139.1783  163.2664 O.2     1  UNL1       -0.2651
     20 C         140.9608  139.9281  169.3093 C.3     1  UNL1        0.0190
     21 C         142.2919  139.4054  169.7619 C.3     1  UNL1        0.0044
     22 C         139.6297  140.4508  168.8567 C.3     1  UNL1        0.0044
     23 C         140.4813  139.9377  170.7306 C.3     1  UNL1        0.0044
     24 C         139.0799  137.6549  155.4158 C.3     1  UNL1        0.1336
     25 N         140.3740  137.5000  156.1582 N.ar    1  UNL1       -0.2911
     26 C         140.8333  138.5756  157.0974 C.ar    1  UNL1        0.0784
     27 C         142.1274  138.4206  157.8398 C.ar    1  UNL1        0.0186
     28 C         142.9623  137.1901  157.6430 C.ar    1  UNL1        0.0210
     29 C         142.5030  136.1144  156.7038 C.ar    1  UNL1        0.1073
     30 C         141.2089  136.2694  155.9614 C.ar    1  UNL1        0.2745
     31 O         140.7496  135.1938  155.0222 O.2     1  UNL1       -0.2656
     32 N         143.3379  134.8839  156.5070 N.am    1  UNL1       -0.2801
     33 C         143.7291  134.0462  157.6882 C.2     1  UNL1        0.2285
     34 O         143.2853  134.4391  159.0662 O.2     1  UNL1       -0.2747
     35 H         143.6291  134.6261  155.6026 H       1  UNL1        0.1550
     36 C         144.5640  132.8156  157.4915 C.3     1  UNL1        0.1120
     37 C         145.5430  131.8114  158.0234 C.3     1  UNL1        0.0476
     38 C         145.0310  131.6885  156.6189 C.3     1  UNL1        0.1701
     39 F         145.0050  130.9668  155.3042 F       1  UNL1       -0.2368
     40 C         141.1684  138.4399  160.6824 C.3     1  UNL1        0.1651
     41 O         141.6846  137.3102  161.5234 O.3     1  UNL1       -0.3772
     42 H         142.2913  136.7663  160.9970 H       1  UNL1        0.2109
@<TRIPOS>BOND
     1    24    25    1
     2    25    26   ar
     3    26    27   ar
     4    27     1    1
     5     1     2   ar
     6     2     3   ar
     7     3     4    1
     8     3     5   ar
     9     5     6   ar
    10     6     8    1
    11     8     9   ar
    12     9    10   ar
    13    10    11   ar
    14    11    12   ar
    15    12    13   ar
    16    13    20    1
    17    20    21    1
    18    20    22    1
    19    20    23    1
    20    13    14   ar
    21    14    15   ar
    22    15    16    1
    23    15    17   ar
    24    17    18   ar
    25    18    19    2
    26     6     7   ar
    27     7    40    1
    28    40    41    1
    29    27    28   ar
    30    28    29   ar
    31    29    32    1
    32    32    33   am
    33    33    34    2
    34    36    33    1
    35    36    37    1
    36    37    38    1
    37    38    39    1
    38    29    30   ar
    39    30    31    2
    40    30    25   ar
    41     7     1   ar
    42    38    36    1
    43    18     8   ar
    44    17    11   ar
    45    41    42    1
    46    32    35    1
@<TRIPOS>MOLECULE
*****
 42 46 0 0 0
SMALL
GASTEIGER

@<TRIPOS>ATOM
      1 C         139.2801  142.9028  158.3069 C.ar    1  UNL1        0.0035
      2 C         139.9217  144.1083  157.6863 C.ar    1  UNL1        0.0295
      3 C         140.6196  145.1155  158.5515 C.ar    1  UNL1        0.1416
      4 F         141.2611  146.3210  157.9309 F       1  UNL1       -0.2041
      5 C         140.6759  144.9172  160.0372 C.ar    1  UNL1        0.0486
      6 C         140.0343  143.7117  160.6578 C.ar    1  UNL1        0.0866
      7 C         139.3365  142.7045  159.7927 C.ar    1  UNL1        0.0250
      8 N         140.0907  143.5134  162.1437 N.ar    1  UNL1       -0.1945
      9 N         138.8963  143.8411  162.9898 N.ar    1  UNL1       -0.1610
     10 C         138.9527  143.6428  164.4756 C.ar    1  UNL1        0.1208
     11 C         140.2034  143.1169  165.1151 C.ar    1  UNL1        0.0274
     12 C         140.2598  142.9186  166.6010 C.ar    1  UNL1       -0.0024
     13 C         141.5105  142.3927  167.2405 C.ar    1  UNL1       -0.0205
     14 C         142.7049  142.0651  166.3942 C.ar    1  UNL1        0.0255
     15 C         142.6485  142.2633  164.9085 C.ar    1  UNL1        0.1445
     16 F         143.8429  141.9357  164.0623 F       1  UNL1       -0.2040
     17 C         141.3978  142.7892  164.2689 C.ar    1  UNL1        0.0868
     18 C         141.3414  142.9875  162.7832 C.ar    1  UNL1        0.2825
     19 O         142.5358  142.6599  161.9369 O.2     1  UNL1       -0.2651
     20 C         141.5669  142.1944  168.7262 C.3     1  UNL1        0.0190
     21 C         142.6558  141.1781  168.5493 C.3     1  UNL1        0.0044
     22 C         140.4780  143.2107  168.9032 C.3     1  UNL1        0.0044
     23 C         141.6233  141.9961  170.2121 C.3     1  UNL1        0.0044
     24 C         139.3674  138.4743  155.5901 C.3     1  UNL1        0.1336
     25 N         138.6259  139.6813  156.0834 N.ar    1  UNL1       -0.2911
     26 C         139.3237  140.6886  156.9485 C.ar    1  UNL1        0.0784
     27 C         138.5823  141.8956  157.4418 C.ar    1  UNL1        0.0186
     28 C         137.1429  142.0954  157.0699 C.ar    1  UNL1        0.0210
     29 C         136.4450  141.0881  156.2048 C.ar    1  UNL1        0.1073
     30 C         137.1865  139.8811  155.7115 C.ar    1  UNL1        0.2745
     31 O         136.4886  138.8739  154.8464 O.2     1  UNL1       -0.2656
     32 N         135.0056  141.2879  155.8329 N.am    1  UNL1       -0.2801
     33 C         133.9344  140.5066  156.5343 C.2     1  UNL1        0.2285
     34 O         134.3026  139.5255  157.6076 O.2     1  UNL1       -0.2747
     35 H         134.7640  141.9319  155.1285 H       1  UNL1        0.1550
     36 C         132.4950  140.7064  156.1625 C.3     1  UNL1        0.1120
     37 C         131.4463  141.4285  155.3695 C.3     1  UNL1        0.0476
     38 C         131.0506  140.3303  156.3114 C.3     1  UNL1        0.1701
     39 F         129.9882  139.4791  156.9413 F       1  UNL1       -0.2368
     40 C         138.6949  141.4990  160.4133 C.3     1  UNL1        0.1651
     41 O         137.5427  141.6659  161.3592 O.3     1  UNL1       -0.3772
     42 H         137.8459  142.1195  162.1613 H       1  UNL1        0.2109
@<TRIPOS>BOND
     1    24    25    1
     2    25    26   ar
     3    26    27   ar
     4    27     1    1
     5     1     2   ar
     6     2     3   ar
     7     3     4    1
     8     3     5   ar
     9     5     6   ar
    10     6     8    1
    11     8     9   ar
    12     9    10   ar
    13    10    11   ar
    14    11    12   ar
    15    12    13   ar
    16    13    20    1
    17    20    21    1
    18    20    22    1
    19    20    23    1
    20    13    14   ar
    21    14    15   ar
    22    15    16    1
    23    15    17   ar
    24    17    18   ar
    25    18    19    2
    26     6     7   ar
    27     7    40    1
    28    40    41    1
    29    27    28   ar
    30    28    29   ar
    31    29    32    1
    32    32    33   am
    33    33    34    2
    34    36    33    1
    35    36    37    1
    36    37    38    1
    37    38    39    1
    38    29    30   ar
    39    30    31    2
    40    30    25   ar
    41     7     1   ar
    42    38    36    1
    43    18     8   ar
    44    17    11   ar
    45    41    42    1
    46    32    35    1
@<TRIPOS>MOLECULE
*****
 42 46 0 0 0
SMALL
GASTEIGER

@<TRIPOS>ATOM
      1 C         140.2861  139.2043  158.7295 C.ar    1  UNL1        0.0035
      2 C         139.0510  139.7541  158.0797 C.ar    1  UNL1        0.0295
      3 C         137.8998  140.2130  158.9249 C.ar    1  UNL1        0.1416
      4 F         136.6646  140.7627  158.2751 F       1  UNL1       -0.2041
      5 C         137.9838  140.1221  160.4197 C.ar    1  UNL1        0.0486
      6 C         139.2189  139.5724  161.0695 C.ar    1  UNL1        0.0866
      7 C         140.3701  139.1135  160.2244 C.ar    1  UNL1        0.0250
      8 N         139.3029  139.4815  162.5645 N.ar    1  UNL1       -0.1945
      9 N         138.8736  138.2265  163.2649 N.ar    1  UNL1       -0.1610
     10 C         138.9575  138.1357  164.7597 C.ar    1  UNL1        0.1208
     11 C         139.4708  139.2999  165.5542 C.ar    1  UNL1        0.0274
     12 C         139.5547  139.2091  167.0491 C.ar    1  UNL1       -0.0024
     13 C         140.0680  140.3733  167.8436 C.ar    1  UNL1       -0.0205
     14 C         140.4973  141.6284  167.1431 C.ar    1  UNL1        0.0255
     15 C         140.4133  141.7192  165.6482 C.ar    1  UNL1        0.1445
     16 F         140.8426  142.9742  164.9478 F       1  UNL1       -0.2040
     17 C         139.9001  140.5549  164.8538 C.ar    1  UNL1        0.0868
     18 C         139.8161  140.6457  163.3589 C.ar    1  UNL1        0.2825
     19 O         140.2454  141.9008  162.6584 O.2     1  UNL1       -0.2651
     20 C         140.1520  140.2825  169.3384 C.3     1  UNL1        0.0190
     21 C         141.6448  140.4078  169.2622 C.3     1  UNL1        0.0044
     22 C         138.6592  140.1572  169.4147 C.3     1  UNL1        0.0044
     23 C         140.2360  140.1917  170.8334 C.3     1  UNL1        0.0044
     24 C         144.7966  140.1959  156.3480 C.3     1  UNL1        0.1336
     25 N         143.6925  139.2412  156.6937 N.ar    1  UNL1       -0.2911
     26 C         142.5414  139.7001  157.5388 C.ar    1  UNL1        0.0784
     27 C         141.4372  138.7454  157.8844 C.ar    1  UNL1        0.0186
     28 C         141.4843  137.3318  157.3849 C.ar    1  UNL1        0.0210
     29 C         142.6355  136.8729  156.5398 C.ar    1  UNL1        0.1073
     30 C         143.7396  137.8276  156.1942 C.ar    1  UNL1        0.2745
     31 O         144.8907  137.3687  155.3491 O.2     1  UNL1       -0.2656
     32 N         142.6825  135.4593  156.0403 N.am    1  UNL1       -0.2801
     33 C         143.1395  134.3574  156.9497 C.2     1  UNL1        0.2285
     34 O         143.5494  134.6691  158.3585 O.2     1  UNL1       -0.2747
     35 H         142.4134  135.2547  155.1157 H       1  UNL1        0.1550
     36 C         143.1865  132.9437  156.4502 C.3     1  UNL1        0.1120
     37 C         142.4783  131.7082  155.9792 C.3     1  UNL1        0.0476
     38 C         143.9761  131.7308  156.0562 C.3     1  UNL1        0.1701
     39 F         145.2968  131.0436  155.8732 F       1  UNL1       -0.2368
     40 C         141.6052  138.5637  160.8742 C.3     1  UNL1        0.1651
     41 O         141.5246  137.3163  161.7033 O.3     1  UNL1       -0.3772
     42 H         140.9880  137.4871  162.4931 H       1  UNL1        0.2109
@<TRIPOS>BOND
     1    24    25    1
     2    25    26   ar
     3    26    27   ar
     4    27     1    1
     5     1     2   ar
     6     2     3   ar
     7     3     4    1
     8     3     5   ar
     9     5     6   ar
    10     6     8    1
    11     8     9   ar
    12     9    10   ar
    13    10    11   ar
    14    11    12   ar
    15    12    13   ar
    16    13    20    1
    17    20    21    1
    18    20    22    1
    19    20    23    1
    20    13    14   ar
    21    14    15   ar
    22    15    16    1
    23    15    17   ar
    24    17    18   ar
    25    18    19    2
    26     6     7   ar
    27     7    40    1
    28    40    41    1
    29    27    28   ar
    30    28    29   ar
    31    29    32    1
    32    32    33   am
    33    33    34    2
    34    36    33    1
    35    36    37    1
    36    37    38    1
    37    38    39    1
    38    29    30   ar
    39    30    31    2
    40    30    25   ar
    41     7     1   ar
    42    38    36    1
    43    18     8   ar
    44    17    11   ar
    45    41    42    1
    46    32    35    1
@<TRIPOS>MOLECULE
*****
 42 46 0 0 0
SMALL
GASTEIGER

@<TRIPOS>ATOM
      1 C         142.2821  143.4768  158.2046 C.ar    1  UNL1        0.0035
      2 C         143.5354  143.1061  157.4685 C.ar    1  UNL1        0.0295
      3 C         144.7318  142.6114  158.2262 C.ar    1  UNL1        0.1416
      4 F         145.9851  142.2407  157.4900 F       1  UNL1       -0.2041
      5 C         144.6748  142.4873  159.7199 C.ar    1  UNL1        0.0486
      6 C         143.4215  142.8579  160.4560 C.ar    1  UNL1        0.0866
      7 C         142.2252  143.3526  159.6984 C.ar    1  UNL1        0.0250
      8 N         143.3646  142.7338  161.9499 N.ar    1  UNL1       -0.1945
      9 N         143.6516  143.9264  162.8130 N.ar    1  UNL1       -0.1610
     10 C         143.5947  143.8023  164.3068 C.ar    1  UNL1        0.1208
     11 C         143.2507  142.4854  164.9373 C.ar    1  UNL1        0.0274
     12 C         143.1938  142.3613  166.4312 C.ar    1  UNL1       -0.0024
     13 C         142.8499  141.0445  167.0617 C.ar    1  UNL1       -0.0205
     14 C         142.5628  139.8518  166.1985 C.ar    1  UNL1        0.0255
     15 C         142.6197  139.9759  164.7047 C.ar    1  UNL1        0.1445
     16 F         142.3327  138.7832  163.8416 F       1  UNL1       -0.2040
     17 C         142.9637  141.2928  164.0742 C.ar    1  UNL1        0.0868
     18 C         143.0206  141.4169  162.5804 C.ar    1  UNL1        0.2825
     19 O         142.7336  140.2242  161.7172 O.2     1  UNL1       -0.2651
     20 C         142.7929  140.9203  168.5555 C.3     1  UNL1        0.0190
     21 C         142.5740  139.4422  168.4242 C.3     1  UNL1        0.0044
     22 C         143.0118  142.3984  168.6867 C.3     1  UNL1        0.0044
     23 C         142.7360  140.7961  170.0493 C.3     1  UNL1        0.0044
     24 C         137.7779  142.5335  155.7917 C.3     1  UNL1        0.1336
     25 N         138.8337  143.4999  156.2406 N.ar    1  UNL1       -0.2911
     26 C         140.0300  143.0052  156.9982 C.ar    1  UNL1        0.0784
     27 C         141.0858  143.9715  157.4470 C.ar    1  UNL1        0.0186
     28 C         140.9453  145.4326  157.1383 C.ar    1  UNL1        0.0210
     29 C         139.7489  145.9274  156.3806 C.ar    1  UNL1        0.1073
     30 C         138.6931  144.9611  155.9318 C.ar    1  UNL1        0.2745
     31 O         137.4968  145.4558  155.1742 O.2     1  UNL1       -0.2656
     32 N         139.6084  147.3885  156.0719 N.am    1  UNL1       -0.2801
     33 C         139.9810  147.9075  154.7148 C.2     1  UNL1        0.2285
     34 O         140.4942  146.9654  153.6664 O.2     1  UNL1       -0.2747
     35 H         139.2716  148.0069  156.7599 H       1  UNL1        0.1550
     36 C         139.8405  149.3687  154.4060 C.3     1  UNL1        0.1120
     37 C         140.2822  150.5841  153.6460 C.3     1  UNL1        0.0476
     38 C         139.1555  150.6840  154.6311 C.3     1  UNL1        0.1701
     39 F         138.1094  151.5010  155.3298 F       1  UNL1       -0.2368
     40 C         140.9719  143.7233  160.4346 C.3     1  UNL1        0.1651
     41 O         140.9306  144.9730  161.2632 O.3     1  UNL1       -0.3772
     42 H         141.5391  144.8839  162.0133 H       1  UNL1        0.2109
@<TRIPOS>BOND
     1    24    25    1
     2    25    26   ar
     3    26    27   ar
     4    27     1    1
     5     1     2   ar
     6     2     3   ar
     7     3     4    1
     8     3     5   ar
     9     5     6   ar
    10     6     8    1
    11     8     9   ar
    12     9    10   ar
    13    10    11   ar
    14    11    12   ar
    15    12    13   ar
    16    13    20    1
    17    20    21    1
    18    20    22    1
    19    20    23    1
    20    13    14   ar
    21    14    15   ar
    22    15    16    1
    23    15    17   ar
    24    17    18   ar
    25    18    19    2
    26     6     7   ar
    27     7    40    1
    28    40    41    1
    29    27    28   ar
    30    28    29   ar
    31    29    32    1
    32    32    33   am
    33    33    34    2
    34    36    33    1
    35    36    37    1
    36    37    38    1
    37    38    39    1
    38    29    30   ar
    39    30    31    2
    40    30    25   ar
    41     7     1   ar
    42    38    36    1
    43    18     8   ar
    44    17    11   ar
    45    41    42    1
    46    32    35    1
@<TRIPOS>MOLECULE
*****
 42 46 0 0 0
SMALL
GASTEIGER

@<TRIPOS>ATOM
      1 C         140.4179  139.6848  158.6239 C.ar    1  UNL1        0.0035
      2 C         139.0667  139.8483  157.9935 C.ar    1  UNL1        0.0295
      3 C         137.9223  140.3853  158.8012 C.ar    1  UNL1        0.1416
      4 F         136.5710  140.5488  158.1708 F       1  UNL1       -0.2041
      5 C         138.1292  140.7587  160.2391 C.ar    1  UNL1        0.0486
      6 C         139.4805  140.5951  160.8695 C.ar    1  UNL1        0.0866
      7 C         140.6248  140.0582  160.0619 C.ar    1  UNL1        0.0250
      8 N         139.6873  140.9686  162.3075 N.ar    1  UNL1       -0.1945
      9 N         140.2843  142.2991  162.6584 N.ar    1  UNL1       -0.1610
     10 C         140.4911  142.6725  164.0964 C.ar    1  UNL1        0.1208
     11 C         140.1010  141.7153  165.1834 C.ar    1  UNL1        0.0274
     12 C         140.3079  142.0887  166.6214 C.ar    1  UNL1       -0.0024
     13 C         139.9178  141.1315  167.7085 C.ar    1  UNL1       -0.0205
     14 C         139.3208  139.8009  167.3574 C.ar    1  UNL1        0.0255
     15 C         139.1140  139.4276  165.9195 C.ar    1  UNL1        0.1445
     16 F         138.5170  138.0970  165.5685 F       1  UNL1       -0.2040
     17 C         139.5041  140.3848  164.8325 C.ar    1  UNL1        0.0868
     18 C         139.2972  140.0114  163.3945 C.ar    1  UNL1        0.2825
     19 O         138.7002  138.6808  163.0435 O.2     1  UNL1       -0.2651
     20 C         140.1247  141.5049  169.1464 C.3     1  UNL1        0.0190
     21 C         140.9672  142.6712  168.7224 C.3     1  UNL1        0.0044
     22 C         139.2821  140.3386  169.5704 C.3     1  UNL1        0.0044
     23 C         140.3315  141.8783  170.5844 C.3     1  UNL1        0.0044
     24 C         144.4694  140.4896  155.4715 C.3     1  UNL1        0.1336
     25 N         143.5880  139.5503  156.2402 N.ar    1  UNL1       -0.2911
     26 C         142.4436  140.0872  157.0477 C.ar    1  UNL1        0.0784
     27 C         141.5623  139.1479  157.8164 C.ar    1  UNL1        0.0186
     28 C         141.8252  137.6717  157.7775 C.ar    1  UNL1        0.0210
     29 C         142.9696  137.1347  156.9699 C.ar    1  UNL1        0.1073
     30 C         143.8510  138.0740  156.2012 C.ar    1  UNL1        0.2745
     31 O         144.9953  137.5371  155.3937 O.2     1  UNL1       -0.2656
     32 N         143.2325  135.6585  156.9310 N.am    1  UNL1       -0.2801
     33 C         142.4610  134.7839  155.9877 C.2     1  UNL1        0.2285
     34 O         141.4266  135.3856  155.0833 O.2     1  UNL1       -0.2747
     35 H         143.9115  135.2636  157.5246 H       1  UNL1        0.1550
     36 C         142.7240  133.3076  155.9487 C.3     1  UNL1        0.1120
     37 C         142.2133  131.8978  155.9074 C.3     1  UNL1        0.0476
     38 C         143.6900  132.1604  155.9226 C.3     1  UNL1        0.1701
     39 F         145.1003  131.6497  155.9164 F       1  UNL1       -0.2368
     40 C         141.9760  139.8947  160.6923 C.3     1  UNL1        0.1651
     41 O         142.7797  141.1043  161.0681 O.3     1  UNL1       -0.3772
     42 H         143.0323  141.5868  160.2654 H       1  UNL1        0.2109
@<TRIPOS>BOND
     1    24    25    1
     2    25    26   ar
     3    26    27   ar
     4    27     1    1
     5     1     2   ar
     6     2     3   ar
     7     3     4    1
     8     3     5   ar
     9     5     6   ar
    10     6     8    1
    11     8     9   ar
    12     9    10   ar
    13    10    11   ar
    14    11    12   ar
    15    12    13   ar
    16    13    20    1
    17    20    21    1
    18    20    22    1
    19    20    23    1
    20    13    14   ar
    21    14    15   ar
    22    15    16    1
    23    15    17   ar
    24    17    18   ar
    25    18    19    2
    26     6     7   ar
    27     7    40    1
    28    40    41    1
    29    27    28   ar
    30    28    29   ar
    31    29    32    1
    32    32    33   am
    33    33    34    2
    34    36    33    1
    35    36    37    1
    36    37    38    1
    37    38    39    1
    38    29    30   ar
    39    30    31    2
    40    30    25   ar
    41     7     1   ar
    42    38    36    1
    43    18     8   ar
    44    17    11   ar
    45    41    42    1
    46    32    35    1
@<TRIPOS>MOLECULE
*****
 42 46 0 0 0
SMALL
GASTEIGER

@<TRIPOS>ATOM
      1 C         138.9845  142.9255  157.4325 C.ar    1  UNL1        0.0035
      2 C         139.3054  144.2540  156.8144 C.ar    1  UNL1        0.0295
      3 C         140.0820  145.2750  157.5921 C.ar    1  UNL1        0.1416
      4 F         140.4029  146.6035  156.9740 F       1  UNL1       -0.2041
      5 C         140.5375  144.9674  158.9877 C.ar    1  UNL1        0.0486
      6 C         140.2166  143.6389  159.6058 C.ar    1  UNL1        0.0866
      7 C         139.4401  142.6179  158.8282 C.ar    1  UNL1        0.0250
      8 N         140.6721  143.3313  161.0015 N.ar    1  UNL1       -0.1945
      9 N         141.9906  142.6527  161.2276 N.ar    1  UNL1       -0.1610
     10 C         142.4461  142.3452  162.6233 C.ar    1  UNL1        0.1208
     11 C         141.5832  142.7163  163.7928 C.ar    1  UNL1        0.0274
     12 C         142.0388  142.4087  165.1885 C.ar    1  UNL1       -0.0024
     13 C         141.1758  142.7798  166.3580 C.ar    1  UNL1       -0.0205
     14 C         139.8573  143.4584  166.1317 C.ar    1  UNL1        0.0255
     15 C         139.4018  143.7659  164.7361 C.ar    1  UNL1        0.1445
     16 F         138.0834  144.4445  164.5099 F       1  UNL1       -0.2040
     17 C         140.2647  143.3949  163.5666 C.ar    1  UNL1        0.0868
     18 C         139.8092  143.7024  162.1710 C.ar    1  UNL1        0.2825
     19 O         138.4907  144.3810  161.9447 O.2     1  UNL1       -0.2651
     20 C         141.6314  142.4723  167.7536 C.3     1  UNL1        0.0190
     21 C         142.9342  141.9597  167.2154 C.3     1  UNL1        0.0044
     22 C         140.3285  142.9849  168.2918 C.3     1  UNL1        0.0044
     23 C         142.0869  142.1647  169.1493 C.3     1  UNL1        0.0044
     24 C         138.8608  138.6066  154.5461 C.3     1  UNL1        0.1336
     25 N         138.1462  139.7451  155.2117 N.ar    1  UNL1       -0.2911
     26 C         138.9227  140.7660  155.9893 C.ar    1  UNL1        0.0784
     27 C         138.2080  141.9045  156.6549 C.ar    1  UNL1        0.0186
     28 C         136.7168  142.0221  156.5429 C.ar    1  UNL1        0.0210
     29 C         135.9403  141.0011  155.7653 C.ar    1  UNL1        0.1073
     30 C         136.6549  139.8626  155.0997 C.ar    1  UNL1        0.2745
     31 O         135.8784  138.8416  154.3221 O.2     1  UNL1       -0.2656
     32 N         134.4491  141.1186  155.6534 N.am    1  UNL1       -0.2801
     33 C         133.5630  140.2647  156.5110 C.2     1  UNL1        0.2285
     34 O         134.1681  139.2932  157.4806 O.2     1  UNL1       -0.2747
     35 H         134.0520  141.7563  155.0170 H       1  UNL1        0.1550
     36 C         132.0718  140.3822  156.3991 C.3     1  UNL1        0.1120
     37 C         130.8615  141.0097  155.7735 C.3     1  UNL1        0.0476
     38 C         130.6992  139.9583  156.8309 C.3     1  UNL1        0.1701
     39 F         129.8132  139.1065  157.6906 F       1  UNL1       -0.2368
     40 C         139.1191  141.2894  159.4462 C.3     1  UNL1        0.1651
     41 O         140.1039  140.1616  159.3536 O.3     1  UNL1       -0.3772
     42 H         140.1991  139.8908  158.4271 H       1  UNL1        0.2109
@<TRIPOS>BOND
     1    24    25    1
     2    25    26   ar
     3    26    27   ar
     4    27     1    1
     5     1     2   ar
     6     2     3   ar
     7     3     4    1
     8     3     5   ar
     9     5     6   ar
    10     6     8    1
    11     8     9   ar
    12     9    10   ar
    13    10    11   ar
    14    11    12   ar
    15    12    13   ar
    16    13    20    1
    17    20    21    1
    18    20    22    1
    19    20    23    1
    20    13    14   ar
    21    14    15   ar
    22    15    16    1
    23    15    17   ar
    24    17    18   ar
    25    18    19    2
    26     6     7   ar
    27     7    40    1
    28    40    41    1
    29    27    28   ar
    30    28    29   ar
    31    29    32    1
    32    32    33   am
    33    33    34    2
    34    36    33    1
    35    36    37    1
    36    37    38    1
    37    38    39    1
    38    29    30   ar
    39    30    31    2
    40    30    25   ar
    41     7     1   ar
    42    38    36    1
    43    18     8   ar
    44    17    11   ar
    45    41    42    1
    46    32    35    1
@<TRIPOS>MOLECULE
*****
 42 46 0 0 0
SMALL
GASTEIGER

@<TRIPOS>ATOM
      1 C         140.6318  140.1394  158.9806 C.ar    1  UNL1        0.0035
      2 C         139.6786  141.1303  158.3809 C.ar    1  UNL1        0.0295
      3 C         138.7013  141.8560  159.2575 C.ar    1  UNL1        0.1416
      4 F         137.7482  142.8469  158.6578 F       1  UNL1       -0.2041
      5 C         138.6772  141.5909  160.7336 C.ar    1  UNL1        0.0486
      6 C         139.6304  140.6000  161.3333 C.ar    1  UNL1        0.0866
      7 C         140.6076  139.8743  160.4569 C.ar    1  UNL1        0.0250
      8 N         139.6062  140.3349  162.8096 N.ar    1  UNL1       -0.1945
      9 N         138.7932  139.1981  163.3542 N.ar    1  UNL1       -0.1610
     10 C         138.7691  138.9330  164.8304 C.ar    1  UNL1        0.1208
     11 C         139.5580  139.8047  165.7619 C.ar    1  UNL1        0.0274
     12 C         139.5339  139.5396  167.2381 C.ar    1  UNL1       -0.0024
     13 C         140.3228  140.4113  168.1696 C.ar    1  UNL1       -0.0205
     14 C         141.1359  141.5482  167.6249 C.ar    1  UNL1        0.0255
     15 C         141.1600  141.8132  166.1488 C.ar    1  UNL1        0.1445
     16 F         141.9730  142.9500  165.6041 F       1  UNL1       -0.2040
     17 C         140.3710  140.9415  165.2172 C.ar    1  UNL1        0.0868
     18 C         140.3952  141.2066  163.7411 C.ar    1  UNL1        0.2825
     19 O         141.2082  142.3434  163.1964 O.2     1  UNL1       -0.2651
     20 C         140.2987  140.1462  169.6458 C.3     1  UNL1        0.0190
     21 C         138.8843  140.6413  169.7116 C.3     1  UNL1        0.0044
     22 C         141.7131  139.6511  169.5800 C.3     1  UNL1        0.0044
     23 C         140.2745  139.8812  171.1221 C.3     1  UNL1        0.0044
     24 C         141.9017  135.9761  156.1427 C.3     1  UNL1        0.1336
     25 N         142.2440  137.3320  156.6852 N.ar    1  UNL1       -0.2911
     26 C         141.2667  138.0577  157.5617 C.ar    1  UNL1        0.0784
     27 C         141.6090  139.4137  158.1042 C.ar    1  UNL1        0.0186
     28 C         142.9286  140.0438  157.7702 C.ar    1  UNL1        0.0210
     29 C         143.9059  139.3181  156.8937 C.ar    1  UNL1        0.1073
     30 C         143.5636  137.9622  156.3512 C.ar    1  UNL1        0.2745
     31 O         144.5409  137.2364  155.4748 O.2     1  UNL1       -0.2656
     32 N         145.2255  139.9483  156.5598 N.am    1  UNL1       -0.2801
     33 C         145.3979  140.6864  155.2654 C.2     1  UNL1        0.2285
     34 O         144.2507  140.7944  154.3051 O.2     1  UNL1       -0.2747
     35 H         145.9784  139.8774  157.1901 H       1  UNL1        0.1550
     36 C         146.7175  141.3167  154.9314 C.3     1  UNL1        0.1120
     37 C         147.6580  141.9039  153.9212 C.3     1  UNL1        0.0476
     38 C         148.0626  141.8210  155.3631 C.3     1  UNL1        0.1701
     39 F         149.0728  142.0642  156.4449 F       1  UNL1       -0.2368
     40 C         141.5608  138.8834  161.0566 C.3     1  UNL1        0.1651
     41 O         141.0408  137.6096  161.6543 O.3     1  UNL1       -0.3772
     42 H         140.5059  137.8145  162.4370 H       1  UNL1        0.2109
@<TRIPOS>BOND
     1    24    25    1
     2    25    26   ar
     3    26    27   ar
     4    27     1    1
     5     1     2   ar
     6     2     3   ar
     7     3     4    1
     8     3     5   ar
     9     5     6   ar
    10     6     8    1
    11     8     9   ar
    12     9    10   ar
    13    10    11   ar
    14    11    12   ar
    15    12    13   ar
    16    13    20    1
    17    20    21    1
    18    20    22    1
    19    20    23    1
    20    13    14   ar
    21    14    15   ar
    22    15    16    1
    23    15    17   ar
    24    17    18   ar
    25    18    19    2
    26     6     7   ar
    27     7    40    1
    28    40    41    1
    29    27    28   ar
    30    28    29   ar
    31    29    32    1
    32    32    33   am
    33    33    34    2
    34    36    33    1
    35    36    37    1
    36    37    38    1
    37    38    39    1
    38    29    30   ar
    39    30    31    2
    40    30    25   ar
    41     7     1   ar
    42    38    36    1
    43    18     8   ar
    44    17    11   ar
    45    41    42    1
    46    32    35    1
@<TRIPOS>MOLECULE
*****
 42 46 0 0 0
SMALL
GASTEIGER

@<TRIPOS>ATOM
      1 C         140.8825  142.3850  158.4065 C.ar    1  UNL1        0.0035
      2 C         141.9887  141.5281  157.8661 C.ar    1  UNL1        0.0295
      3 C         142.9365  140.8453  158.8072 C.ar    1  UNL1        0.1416
      4 F         144.0427  139.9883  158.2669 F       1  UNL1       -0.2041
      5 C         142.7780  141.0194  160.2886 C.ar    1  UNL1        0.0486
      6 C         141.6718  141.8763  160.8290 C.ar    1  UNL1        0.0866
      7 C         140.7241  142.5591  159.8880 C.ar    1  UNL1        0.0250
      8 N         141.5133  142.0504  162.3104 N.ar    1  UNL1       -0.1945
      9 N         142.1823  143.1984  163.0065 N.ar    1  UNL1       -0.1610
     10 C         142.0238  143.3724  164.4879 C.ar    1  UNL1        0.1208
     11 C         141.1964  142.3984  165.2732 C.ar    1  UNL1        0.0274
     12 C         141.0379  142.5725  166.7547 C.ar    1  UNL1       -0.0024
     13 C         140.2105  141.5986  167.5400 C.ar    1  UNL1       -0.0205
     14 C         139.5415  140.4505  166.8438 C.ar    1  UNL1        0.0255
     15 C         139.7000  140.2765  165.3625 C.ar    1  UNL1        0.1445
     16 F         139.0310  139.1285  164.6664 F       1  UNL1       -0.2040
     17 C         140.5274  141.2504  164.5771 C.ar    1  UNL1        0.0868
     18 C         140.6859  141.0764  163.0958 C.ar    1  UNL1        0.2825
     19 O         140.0169  139.9284  162.3996 O.2     1  UNL1       -0.2651
     20 C         140.0520  141.7726  169.0214 C.3     1  UNL1        0.0190
     21 C         140.5213  143.1925  168.9048 C.3     1  UNL1        0.0044
     22 C         139.5827  140.3527  169.1380 C.3     1  UNL1        0.0044
     23 C         139.8935  141.9467  170.5028 C.3     1  UNL1        0.0044
     24 C         139.8847  146.1587  154.9768 C.3     1  UNL1        0.1336
     25 N         139.4359  144.9547  155.7506 N.ar    1  UNL1       -0.2911
     26 C         140.3836  144.2719  156.6916 C.ar    1  UNL1        0.0784
     27 C         139.9348  143.0678  157.4655 C.ar    1  UNL1        0.0186
     28 C         138.5383  142.5466  157.2983 C.ar    1  UNL1        0.0210
     29 C         137.5905  143.2294  156.3573 C.ar    1  UNL1        0.1073
     30 C         138.0393  144.4334  155.5834 C.ar    1  UNL1        0.2745
     31 O         137.0915  145.1162  154.6424 O.2     1  UNL1       -0.2656
     32 N         136.1940  142.7081  156.1901 N.am    1  UNL1       -0.2801
     33 C         135.9578  141.2364  156.0227 C.2     1  UNL1        0.2285
     34 O         137.1182  140.2858  156.0224 O.2     1  UNL1       -0.2747
     35 H         135.4324  143.3320  156.1903 H       1  UNL1        0.1550
     36 C         134.5613  140.7150  155.8555 C.3     1  UNL1        0.1120
     37 C         133.1597  140.8935  155.3519 C.3     1  UNL1        0.0476
     38 C         133.5440  139.6336  156.0694 C.3     1  UNL1        0.1701
     39 F         133.1787  138.2819  156.6072 F       1  UNL1       -0.2368
     40 C         139.6179  143.4160  160.4283 C.3     1  UNL1        0.1651
     41 O         138.2873  142.8052  160.7550 O.3     1  UNL1       -0.3772
     42 H         137.8663  142.4919  159.9393 H       1  UNL1        0.2109
@<TRIPOS>BOND
     1    24    25    1
     2    25    26   ar
     3    26    27   ar
     4    27     1    1
     5     1     2   ar
     6     2     3   ar
     7     3     4    1
     8     3     5   ar
     9     5     6   ar
    10     6     8    1
    11     8     9   ar
    12     9    10   ar
    13    10    11   ar
    14    11    12   ar
    15    12    13   ar
    16    13    20    1
    17    20    21    1
    18    20    22    1
    19    20    23    1
    20    13    14   ar
    21    14    15   ar
    22    15    16    1
    23    15    17   ar
    24    17    18   ar
    25    18    19    2
    26     6     7   ar
    27     7    40    1
    28    40    41    1
    29    27    28   ar
    30    28    29   ar
    31    29    32    1
    32    32    33   am
    33    33    34    2
    34    36    33    1
    35    36    37    1
    36    37    38    1
    37    38    39    1
    38    29    30   ar
    39    30    31    2
    40    30    25   ar
    41     7     1   ar
    42    38    36    1
    43    18     8   ar
    44    17    11   ar
    45    41    42    1
    46    32    35    1
@<TRIPOS>MOLECULE
*****
 42 46 0 0 0
SMALL
GASTEIGER

@<TRIPOS>ATOM
      1 C         140.6480  140.7818  158.7198 C.ar    1  UNL1        0.0035
      2 C         139.5041  141.4339  158.0013 C.ar    1  UNL1        0.0295
      3 C         138.5284  142.2838  158.7602 C.ar    1  UNL1        0.1416
      4 F         137.3845  142.9359  158.0418 F       1  UNL1       -0.2041
      5 C         138.6967  142.4815  160.2376 C.ar    1  UNL1        0.0486
      6 C         139.8407  141.8293  160.9560 C.ar    1  UNL1        0.0866
      7 C         140.8163  140.9795  160.1972 C.ar    1  UNL1        0.0250
      8 N         140.0089  142.0271  162.4334 N.ar    1  UNL1       -0.1945
      9 N         140.5899  143.3068  162.9575 N.ar    1  UNL1       -0.1610
     10 C         140.7581  143.5045  164.4348 C.ar    1  UNL1        0.1208
     11 C         140.3454  142.4225  165.3881 C.ar    1  UNL1        0.0274
     12 C         140.5136  142.6202  166.8655 C.ar    1  UNL1       -0.0024
     13 C         140.1009  141.5381  167.8188 C.ar    1  UNL1       -0.0205
     14 C         139.5199  140.2583  167.2947 C.ar    1  UNL1        0.0255
     15 C         139.3517  140.0606  165.8174 C.ar    1  UNL1        0.1445
     16 F         138.7707  138.7809  165.2933 F       1  UNL1       -0.2040
     17 C         139.7644  141.1427  164.8641 C.ar    1  UNL1        0.0868
     18 C         139.5962  140.9450  163.3867 C.ar    1  UNL1        0.2825
     19 O         139.0152  139.6652  162.8626 O.2     1  UNL1       -0.2651
     20 C         140.2691  141.7358  169.2962 C.3     1  UNL1        0.0190
     21 C         140.4796  143.2045  169.0757 C.3     1  UNL1        0.0044
     22 C         140.0587  140.2671  169.5167 C.3     1  UNL1        0.0044
     23 C         140.4374  141.9336  170.7736 C.3     1  UNL1        0.0044
     24 C         141.7808  136.3657  156.2268 C.3     1  UNL1        0.1336
     25 N         142.1900  137.7239  156.7144 N.ar    1  UNL1       -0.2911
     26 C         141.2144  138.5738  157.4733 C.ar    1  UNL1        0.0784
     27 C         141.6236  139.9320  157.9609 C.ar    1  UNL1        0.0186
     28 C         143.0085  140.4404  157.6897 C.ar    1  UNL1        0.0210
     29 C         143.9842  139.5905  156.9308 C.ar    1  UNL1        0.1073
     30 C         143.5750  138.2323  156.4432 C.ar    1  UNL1        0.2745
     31 O         144.5506  137.3825  155.6843 O.2     1  UNL1       -0.2656
     32 N         145.3691  140.0989  156.6595 N.am    1  UNL1       -0.2801
     33 C         145.6322  140.9516  155.4539 C.2     1  UNL1        0.2285
     34 O         144.5104  141.2960  154.5195 O.2     1  UNL1       -0.2747
     35 H         146.1053  139.8729  157.2728 H       1  UNL1        0.1550
     36 C         147.0171  141.4601  155.1826 C.3     1  UNL1        0.1120
     37 C         148.3265  141.9935  155.6837 C.3     1  UNL1        0.0476
     38 C         148.1065  141.8073  154.2116 C.3     1  UNL1        0.1701
     39 F         148.6084  141.9004  152.8012 F       1  UNL1       -0.2368
     40 C         141.9602  140.3274  160.9156 C.3     1  UNL1        0.1651
     41 O         141.7807  138.9754  161.5402 O.3     1  UNL1       -0.3772
     42 H         141.1451  139.0383  162.2702 H       1  UNL1        0.2109
@<TRIPOS>BOND
     1    24    25    1
     2    25    26   ar
     3    26    27   ar
     4    27     1    1
     5     1     2   ar
     6     2     3   ar
     7     3     4    1
     8     3     5   ar
     9     5     6   ar
    10     6     8    1
    11     8     9   ar
    12     9    10   ar
    13    10    11   ar
    14    11    12   ar
    15    12    13   ar
    16    13    20    1
    17    20    21    1
    18    20    22    1
    19    20    23    1
    20    13    14   ar
    21    14    15   ar
    22    15    16    1
    23    15    17   ar
    24    17    18   ar
    25    18    19    2
    26     6     7   ar
    27     7    40    1
    28    40    41    1
    29    27    28   ar
    30    28    29   ar
    31    29    32    1
    32    32    33   am
    33    33    34    2
    34    36    33    1
    35    36    37    1
    36    37    38    1
    37    38    39    1
    38    29    30   ar
    39    30    31    2
    40    30    25   ar
    41     7     1   ar
    42    38    36    1
    43    18     8   ar
    44    17    11   ar
    45    41    42    1
    46    32    35    1
