@<TRIPOS>MOLECULE
*****
 41 46 0 0 0
SMALL
GASTEIGER

@<TRIPOS>ATOM
      1 C         144.2779  139.7997  163.4419 C.3     1  UNL1        0.0570
      2 C         143.8702  139.5753  164.8678 C.3     1  UNL1        0.0331
      3 C         142.6127  138.8187  165.1782 C.3     1  UNL1        0.0735
      4 N         141.7628  138.2866  164.0626 N.3     1  UNL1       -0.2710
      5 C         142.1706  138.5111  162.6366 C.3     1  UNL1        0.0735
      6 C         143.4280  139.2676  162.3262 C.3     1  UNL1        0.0331
      7 N         145.5354  140.5562  163.1316 N.3     1  UNL1       -0.2934
      8 H         146.2914  140.0885  163.6317 H       1  UNL1        0.1236
      9 C         145.6341  142.0156  163.4641 C.3     1  UNL1        0.1152
     10 O         140.4209  145.3316  158.7126 O.2     1  UNL1       -0.2707
     11 C         140.9747  145.1241  160.0911 C.2     1  UNL1        0.2718
     12 C         140.3445  145.8143  161.2642 C.3     1  UNL1        0.2898
     13 O         140.8982  145.6068  162.6427 O.3     1  UNL1       -0.4628
     14 C         142.0822  144.7090  162.8481 C.ar    1  UNL1        0.1708
     15 C         142.6359  144.5015  164.2266 C.ar    1  UNL1        0.0411
     16 C         143.8199  143.6037  164.4319 C.ar    1  UNL1        0.0193
     17 C         144.4502  142.9134  163.2587 C.ar    1  UNL1        0.0765
     18 N         143.8964  143.1209  161.8802 N.ar    1  UNL1       -0.2304
     19 C         142.7124  144.0188  161.6749 C.ar    1  UNL1        0.1682
     20 N         142.1586  144.2263  160.2964 N.am    1  UNL1       -0.2639
     21 H         142.5723  143.7732  159.5264 H       1  UNL1        0.1565
     22 C         140.5054  137.5301  164.3729 C.3     1  UNL1        0.0970
     23 C         139.2628  138.2711  164.7691 C.3     1  UNL1        0.1278
     24 N         138.8003  139.4465  163.9599 N.ar    1  UNL1       -0.2791
     25 C         138.1292  139.2283  162.6362 C.ar    1  UNL1        0.2621
     26 O         137.9207  137.8348  162.1217 O.2     1  UNL1       -0.2669
     27 C         137.6668  140.4036  161.8271 C.ar    1  UNL1        0.0609
     28 C         137.8753  141.7972  162.3416 C.ar    1  UNL1        0.0079
     29 C         138.5464  142.0153  163.6653 C.ar    1  UNL1        0.0346
     30 C         138.7549  143.4087  164.1798 C.ar    1  UNL1        0.0078
     31 C         139.4260  143.6269  165.5035 C.ar    1  UNL1        0.0582
     32 C         139.8885  142.4516  166.3127 C.ar    1  UNL1        0.2311
     33 N         139.6799  141.0580  165.7981 N.ar    1  UNL1       -0.1939
     34 C         139.0089  140.8399  164.4745 C.ar    1  UNL1        0.1492
     35 O         140.5595  142.6697  167.6363 O.3     1  UNL1       -0.4329
     36 C         141.0573  141.4963  168.4273 C.ar    1  UNL1        0.1853
     37 C         140.1463  140.8057  169.3983 C.ar    1  UNL1        0.1397
     38 N         140.6440  139.6323  170.1893 N.ar    1  UNL1       -0.2192
     39 C         142.0527  139.1496  170.0091 C.ar    1  UNL1        0.1991
     40 N         142.9638  139.8404  169.0380 N.ar    1  UNL1       -0.2192
     41 C         142.4660  141.0137  168.2471 C.ar    1  UNL1        0.1397
@<TRIPOS>BOND
     1    10    11    2
     2    11    12    1
     3    12    13    1
     4    13    14    1
     5    14    15   ar
     6    15    16   ar
     7    16    17   ar
     8    17     9    1
     9     9     7    1
    10     7     1    1
    11     1     2    1
    12     2     3    1
    13     3     4    1
    14     4    22    1
    15    22    23    1
    16    23    24    1
    17    24    25   ar
    18    25    26    2
    19    25    27   ar
    20    27    28   ar
    21    28    29   ar
    22    29    30   ar
    23    30    31   ar
    24    31    32   ar
    25    32    35    1
    26    35    36    1
    27    36    37   ar
    28    37    38   ar
    29    38    39   ar
    30    39    40   ar
    31    40    41   ar
    32    32    33   ar
    33    33    34   ar
    34     4     5    1
    35     5     6    1
    36    17    18   ar
    37    18    19   ar
    38    19    20    1
    39    20    11   am
    40    19    14   ar
    41     6     1    1
    42    34    24   ar
    43    34    29   ar
    44    41    36   ar
    45     7     8    1
    46    20    21    1
@<TRIPOS>MOLECULE
*****
 41 46 0 0 0
SMALL
GASTEIGER

@<TRIPOS>ATOM
      1 C         142.2363  144.5093  163.3373 C.3     1  UNL1        0.0570
      2 C         142.1346  143.7416  164.6219 C.3     1  UNL1        0.0331
      3 C         142.9098  142.4696  164.7989 C.3     1  UNL1        0.0735
      4 N         143.7867  141.9654  163.6913 N.3     1  UNL1       -0.2710
      5 C         143.8884  142.7332  162.4067 C.3     1  UNL1        0.0735
      6 C         143.1133  144.0051  162.2297 C.3     1  UNL1        0.0331
      7 N         141.4612  145.7811  163.1602 N.3     1  UNL1       -0.2934
      8 H         141.2686  146.1411  164.0950 H       1  UNL1        0.1236
      9 C         140.1543  145.7667  162.4240 C.3     1  UNL1        0.1152
     10 O         138.6295  139.3944  158.2028 O.2     1  UNL1       -0.2707
     11 C         138.3942  140.2287  159.4269 C.2     1  UNL1        0.2718
     12 C         137.4153  139.7733  160.4682 C.3     1  UNL1        0.2898
     13 O         137.1799  140.6076  161.6923 O.3     1  UNL1       -0.4628
     14 C         137.9235  141.8973  161.8752 C.ar    1  UNL1        0.1708
     15 C         137.6882  142.7316  163.0994 C.ar    1  UNL1        0.0411
     16 C         138.4317  144.0214  163.2823 C.ar    1  UNL1        0.0193
     17 C         139.4107  144.4770  162.2411 C.ar    1  UNL1        0.0765
     18 N         139.6461  143.6427  161.0169 N.ar    1  UNL1       -0.2304
     19 C         138.9024  142.3528  160.8340 C.ar    1  UNL1        0.1682
     20 N         139.1378  141.5185  159.6099 N.am    1  UNL1       -0.2639
     21 H         139.7803  141.8175  158.9265 H       1  UNL1        0.1565
     22 C         144.5619  140.6935  163.8684 C.3     1  UNL1        0.0970
     23 C         143.8665  139.4509  164.3396 C.3     1  UNL1        0.1278
     24 N         142.6355  138.9662  163.6325 N.ar    1  UNL1       -0.2791
     25 C         142.7357  138.4277  162.2361 C.ar    1  UNL1        0.2621
     26 O         144.0669  138.3739  161.5468 O.2     1  UNL1       -0.2669
     27 C         141.5049  137.9431  161.5290 C.ar    1  UNL1        0.0609
     28 C         140.1737  137.9970  162.2183 C.ar    1  UNL1        0.0079
     29 C         140.0734  138.5355  163.6147 C.ar    1  UNL1        0.0346
     30 C         138.7423  138.5893  164.3041 C.ar    1  UNL1        0.0078
     31 C         138.6421  139.1278  165.7005 C.ar    1  UNL1        0.0582
     32 C         139.8730  139.6124  166.4076 C.ar    1  UNL1        0.2311
     33 N         141.2042  139.5586  165.7183 N.ar    1  UNL1       -0.1939
     34 C         141.3044  139.0201  164.3218 C.ar    1  UNL1        0.1492
     35 O         139.7727  140.1509  167.8040 O.3     1  UNL1       -0.4329
     36 C         140.9988  140.6631  168.5001 C.ar    1  UNL1        0.1853
     37 C         141.8521  139.7262  169.3027 C.ar    1  UNL1        0.1397
     38 N         143.0781  140.2383  169.9988 N.ar    1  UNL1       -0.2192
     39 C         143.4509  141.6874  169.8924 C.ar    1  UNL1        0.1991
     40 N         142.5975  142.6243  169.0898 N.ar    1  UNL1       -0.2192
     41 C         141.3715  142.1121  168.3937 C.ar    1  UNL1        0.1397
@<TRIPOS>BOND
     1    10    11    2
     2    11    12    1
     3    12    13    1
     4    13    14    1
     5    14    15   ar
     6    15    16   ar
     7    16    17   ar
     8    17     9    1
     9     9     7    1
    10     7     1    1
    11     1     2    1
    12     2     3    1
    13     3     4    1
    14     4    22    1
    15    22    23    1
    16    23    24    1
    17    24    25   ar
    18    25    26    2
    19    25    27   ar
    20    27    28   ar
    21    28    29   ar
    22    29    30   ar
    23    30    31   ar
    24    31    32   ar
    25    32    35    1
    26    35    36    1
    27    36    37   ar
    28    37    38   ar
    29    38    39   ar
    30    39    40   ar
    31    40    41   ar
    32    32    33   ar
    33    33    34   ar
    34     4     5    1
    35     5     6    1
    36    17    18   ar
    37    18    19   ar
    38    19    20    1
    39    20    11   am
    40    19    14   ar
    41     6     1    1
    42    34    24   ar
    43    34    29   ar
    44    41    36   ar
    45     7     8    1
    46    20    21    1
@<TRIPOS>MOLECULE
*****
 41 46 0 0 0
SMALL
GASTEIGER

@<TRIPOS>ATOM
      1 C         141.7249  144.3747  163.5680 C.3     1  UNL1        0.0570
      2 C         140.6535  144.0679  162.5641 C.3     1  UNL1        0.0331
      3 C         139.4750  143.2276  162.9580 C.3     1  UNL1        0.0735
      4 N         139.3680  142.6942  164.3558 N.3     1  UNL1       -0.2710
      5 C         140.4395  143.0010  165.3598 C.3     1  UNL1        0.0735
      6 C         141.6179  143.8413  164.9658 C.3     1  UNL1        0.0331
      7 N         142.9034  145.2150  163.1741 N.3     1  UNL1       -0.2934
      8 H         142.5961  145.8115  162.4058 H       1  UNL1        0.1236
      9 C         144.1773  144.5591  162.7301 C.3     1  UNL1        0.1152
     10 O         143.0496  137.9715  158.7200 O.2     1  UNL1       -0.2707
     11 C         143.5069  138.6724  159.9648 C.2     1  UNL1        0.2718
     12 C         144.0457  137.8784  161.1177 C.3     1  UNL1        0.2898
     13 O         144.5031  138.5793  162.3625 O.3     1  UNL1       -0.4628
     14 C         144.4216  140.0742  162.4544 C.ar    1  UNL1        0.1708
     15 C         144.8790  140.7751  163.6992 C.ar    1  UNL1        0.0411
     16 C         144.7976  142.2701  163.7911 C.ar    1  UNL1        0.0193
     17 C         144.2588  143.0642  162.6382 C.ar    1  UNL1        0.0765
     18 N         143.8014  142.3633  161.3934 N.ar    1  UNL1       -0.2304
     19 C         143.8828  140.8682  161.3015 C.ar    1  UNL1        0.1682
     20 N         143.4255  140.1673  160.0567 N.am    1  UNL1       -0.2639
     21 H         143.0718  140.6885  159.3000 H       1  UNL1        0.1565
     22 C         138.1896  141.8539  164.7497 C.3     1  UNL1        0.0970
     23 C         138.4040  140.5030  165.3653 C.3     1  UNL1        0.1278
     24 N         139.3715  139.5402  164.7429 N.ar    1  UNL1       -0.2791
     25 C         139.0401  138.8838  163.4355 C.ar    1  UNL1        0.2621
     26 O         137.7412  139.1901  162.7505 O.2     1  UNL1       -0.2669
     27 C         140.0075  137.9211  162.8132 C.ar    1  UNL1        0.0609
     28 C         141.3064  137.6148  163.4983 C.ar    1  UNL1        0.0079
     29 C         141.6377  138.2713  164.8057 C.ar    1  UNL1        0.0346
     30 C         142.9365  137.9650  165.4907 C.ar    1  UNL1        0.0078
     31 C         143.2679  138.6215  166.7981 C.ar    1  UNL1        0.0582
     32 C         142.3005  139.5842  167.4204 C.ar    1  UNL1        0.2311
     33 N         141.0016  139.8904  166.7354 N.ar    1  UNL1       -0.1939
     34 C         140.6703  139.2340  165.4280 C.ar    1  UNL1        0.1492
     35 O         142.6319  140.2406  168.7278 O.3     1  UNL1       -0.4329
     36 C         141.6563  141.1891  169.3594 C.ar    1  UNL1        0.1853
     37 C         140.4108  140.6621  170.0082 C.ar    1  UNL1        0.1397
     38 N         139.4352  141.6106  170.6397 N.ar    1  UNL1       -0.2192
     39 C         139.7053  143.0860  170.6224 C.ar    1  UNL1        0.1991
     40 N         140.9509  143.6129  169.9736 N.ar    1  UNL1       -0.2192
     41 C         141.9263  142.6645  169.3421 C.ar    1  UNL1        0.1397
@<TRIPOS>BOND
     1    10    11    2
     2    11    12    1
     3    12    13    1
     4    13    14    1
     5    14    15   ar
     6    15    16   ar
     7    16    17   ar
     8    17     9    1
     9     9     7    1
    10     7     1    1
    11     1     2    1
    12     2     3    1
    13     3     4    1
    14     4    22    1
    15    22    23    1
    16    23    24    1
    17    24    25   ar
    18    25    26    2
    19    25    27   ar
    20    27    28   ar
    21    28    29   ar
    22    29    30   ar
    23    30    31   ar
    24    31    32   ar
    25    32    35    1
    26    35    36    1
    27    36    37   ar
    28    37    38   ar
    29    38    39   ar
    30    39    40   ar
    31    40    41   ar
    32    32    33   ar
    33    33    34   ar
    34     4     5    1
    35     5     6    1
    36    17    18   ar
    37    18    19   ar
    38    19    20    1
    39    20    11   am
    40    19    14   ar
    41     6     1    1
    42    34    24   ar
    43    34    29   ar
    44    41    36   ar
    45     7     8    1
    46    20    21    1
@<TRIPOS>MOLECULE
*****
 41 46 0 0 0
SMALL
GASTEIGER

@<TRIPOS>ATOM
      1 C         143.0378  143.3865  164.3055 C.3     1  UNL1        0.0570
      2 C         142.4286  144.1743  163.1838 C.3     1  UNL1        0.0331
      3 C         140.9554  144.4568  163.1793 C.3     1  UNL1        0.0735
      4 N         140.0915  143.9516  164.2966 N.3     1  UNL1       -0.2710
      5 C         140.7007  143.1638  165.4184 C.3     1  UNL1        0.0735
      6 C         142.1739  142.8813  165.4228 C.3     1  UNL1        0.0331
      7 N         144.5109  143.1040  164.3099 N.3     1  UNL1       -0.2934
      8 H         144.8974  143.5428  163.4741 H       1  UNL1        0.1236
      9 C         145.0028  141.6870  164.3220 C.3     1  UNL1        0.1152
     10 O         143.5098  138.7927  157.2408 O.2     1  UNL1       -0.2707
     11 C         143.3500  138.7278  158.7308 C.2     1  UNL1        0.2718
     12 C         142.5326  137.6334  159.3505 C.3     1  UNL1        0.2898
     13 O         142.3727  137.5685  160.8405 O.3     1  UNL1       -0.4628
     14 C         143.0302  138.5981  161.7109 C.ar    1  UNL1        0.1708
     15 C         142.8704  138.5333  163.2009 C.ar    1  UNL1        0.0411
     16 C         143.5279  139.5629  164.0713 C.ar    1  UNL1        0.0193
     17 C         144.3453  140.6574  163.4516 C.ar    1  UNL1        0.0765
     18 N         144.5052  140.7222  161.9616 N.ar    1  UNL1       -0.2304
     19 C         143.8476  139.6926  161.0912 C.ar    1  UNL1        0.1682
     20 N         144.0075  139.7574  159.6012 N.am    1  UNL1       -0.2639
     21 H         144.5439  140.4758  159.1944 H       1  UNL1        0.1565
     22 C         138.6184  144.2341  164.2921 C.3     1  UNL1        0.0970
     23 C         137.6380  143.1026  164.1993 C.3     1  UNL1        0.1278
     24 N         137.9751  141.8823  163.3947 N.ar    1  UNL1       -0.2791
     25 C         138.0187  141.9596  161.8973 C.ar    1  UNL1        0.2621
     26 O         137.7251  143.2573  161.2045 O.2     1  UNL1       -0.2669
     27 C         138.3558  140.7394  161.0928 C.ar    1  UNL1        0.0609
     28 C         138.6493  139.4417  161.7856 C.ar    1  UNL1        0.0079
     29 C         138.6058  139.3644  163.2829 C.ar    1  UNL1        0.0346
     30 C         138.8993  138.0668  163.9758 C.ar    1  UNL1        0.0078
     31 C         138.8558  137.9894  165.4731 C.ar    1  UNL1        0.0582
     32 C         138.5187  139.2096  166.2777 C.ar    1  UNL1        0.2311
     33 N         138.2251  140.5073  165.5849 N.ar    1  UNL1       -0.1939
     34 C         138.2687  140.5847  164.0875 C.ar    1  UNL1        0.1492
     35 O         138.4751  139.1323  167.7751 O.3     1  UNL1       -0.4329
     36 C         139.4301  139.9471  168.5962 C.ar    1  UNL1        0.1853
     37 C         140.8003  140.2537  168.0686 C.ar    1  UNL1        0.1397
     38 N         141.7552  141.0685  168.8898 N.ar    1  UNL1       -0.2192
     39 C         141.3398  141.5767  170.2386 C.ar    1  UNL1        0.1991
     40 N         139.9695  141.2700  170.7662 N.ar    1  UNL1       -0.2192
     41 C         139.0147  140.4552  169.9450 C.ar    1  UNL1        0.1397
@<TRIPOS>BOND
     1    10    11    2
     2    11    12    1
     3    12    13    1
     4    13    14    1
     5    14    15   ar
     6    15    16   ar
     7    16    17   ar
     8    17     9    1
     9     9     7    1
    10     7     1    1
    11     1     2    1
    12     2     3    1
    13     3     4    1
    14     4    22    1
    15    22    23    1
    16    23    24    1
    17    24    25   ar
    18    25    26    2
    19    25    27   ar
    20    27    28   ar
    21    28    29   ar
    22    29    30   ar
    23    30    31   ar
    24    31    32   ar
    25    32    35    1
    26    35    36    1
    27    36    37   ar
    28    37    38   ar
    29    38    39   ar
    30    39    40   ar
    31    40    41   ar
    32    32    33   ar
    33    33    34   ar
    34     4     5    1
    35     5     6    1
    36    17    18   ar
    37    18    19   ar
    38    19    20    1
    39    20    11   am
    40    19    14   ar
    41     6     1    1
    42    34    24   ar
    43    34    29   ar
    44    41    36   ar
    45     7     8    1
    46    20    21    1
@<TRIPOS>MOLECULE
*****
 41 46 0 0 0
SMALL
GASTEIGER

@<TRIPOS>ATOM
      1 C         137.9467  143.3427  162.8040 C.3     1  UNL1        0.0570
      2 C         138.0728  142.3230  161.7111 C.3     1  UNL1        0.0331
      3 C         138.2763  140.8770  162.0543 C.3     1  UNL1        0.0735
      4 N         138.3538  140.4508  163.4904 N.3     1  UNL1       -0.2710
      5 C         138.2277  141.4705  164.5833 C.3     1  UNL1        0.0735
      6 C         138.0242  142.9164  164.2400 C.3     1  UNL1        0.0331
      7 N         137.7431  144.7886  162.4607 N.3     1  UNL1       -0.2934
      8 H         137.1719  144.8131  161.6160 H       1  UNL1        0.1236
      9 C         138.9277  145.6735  162.2082 C.3     1  UNL1        0.1152
     10 O         144.5737  141.9034  158.3795 O.2     1  UNL1       -0.2707
     11 C         144.0722  142.5743  159.6238 C.2     1  UNL1        0.2718
     12 C         144.9512  142.6594  160.8363 C.3     1  UNL1        0.2898
     13 O         144.4497  143.3303  162.0806 O.3     1  UNL1       -0.4628
     14 C         143.0693  143.9161  162.1125 C.ar    1  UNL1        0.1708
     15 C         142.5678  144.5870  163.3568 C.ar    1  UNL1        0.0411
     16 C         141.1873  145.1728  163.3888 C.ar    1  UNL1        0.0193
     17 C         140.3082  145.0877  162.1763 C.ar    1  UNL1        0.0765
     18 N         140.8097  144.4168  160.9319 N.ar    1  UNL1       -0.2304
     19 C         142.1903  143.8310  160.9001 C.ar    1  UNL1        0.1682
     20 N         142.6917  143.1601  159.6557 N.am    1  UNL1       -0.2639
     21 H         142.1148  143.1042  158.8599 H       1  UNL1        0.1565
     22 C         138.5574  139.0049  163.8336 C.3     1  UNL1        0.0970
     23 C         139.7390  138.5891  164.6588 C.3     1  UNL1        0.1278
     24 N         141.1290  138.9013  164.1890 N.ar    1  UNL1       -0.2791
     25 C         141.7606  138.0711  163.1112 C.ar    1  UNL1        0.2621
     26 O         141.0022  136.9287  162.5030 O.2     1  UNL1       -0.2669
     27 C         143.1505  138.3832  162.6414 C.ar    1  UNL1        0.0609
     28 C         143.9089  139.5257  163.2496 C.ar    1  UNL1        0.0079
     29 C         143.2773  140.3559  164.3274 C.ar    1  UNL1        0.0346
     30 C         144.0356  141.4983  164.9356 C.ar    1  UNL1        0.0078
     31 C         143.4040  142.3285  166.0135 C.ar    1  UNL1        0.0582
     32 C         142.0141  142.0164  166.4832 C.ar    1  UNL1        0.2311
     33 N         141.2557  140.8739  165.8751 N.ar    1  UNL1       -0.1939
     34 C         141.8873  140.0437  164.7972 C.ar    1  UNL1        0.1492
     35 O         141.3825  142.8466  167.5611 O.3     1  UNL1       -0.4329
     36 C         141.2989  142.3185  168.9626 C.ar    1  UNL1        0.1853
     37 C         142.1610  141.1648  169.3820 C.ar    1  UNL1        0.1397
     38 N         142.0774  140.6367  170.7835 N.ar    1  UNL1       -0.2192
     39 C         141.1317  141.2623  171.7656 C.ar    1  UNL1        0.1991
     40 N         140.2696  142.4159  171.3460 N.ar    1  UNL1       -0.2192
     41 C         140.3532  142.9440  169.9446 C.ar    1  UNL1        0.1397
@<TRIPOS>BOND
     1    10    11    2
     2    11    12    1
     3    12    13    1
     4    13    14    1
     5    14    15   ar
     6    15    16   ar
     7    16    17   ar
     8    17     9    1
     9     9     7    1
    10     7     1    1
    11     1     2    1
    12     2     3    1
    13     3     4    1
    14     4    22    1
    15    22    23    1
    16    23    24    1
    17    24    25   ar
    18    25    26    2
    19    25    27   ar
    20    27    28   ar
    21    28    29   ar
    22    29    30   ar
    23    30    31   ar
    24    31    32   ar
    25    32    35    1
    26    35    36    1
    27    36    37   ar
    28    37    38   ar
    29    38    39   ar
    30    39    40   ar
    31    40    41   ar
    32    32    33   ar
    33    33    34   ar
    34     4     5    1
    35     5     6    1
    36    17    18   ar
    37    18    19   ar
    38    19    20    1
    39    20    11   am
    40    19    14   ar
    41     6     1    1
    42    34    24   ar
    43    34    29   ar
    44    41    36   ar
    45     7     8    1
    46    20    21    1
@<TRIPOS>MOLECULE
*****
 41 46 0 0 0
SMALL
GASTEIGER

@<TRIPOS>ATOM
      1 C         140.1404  144.3314  162.9256 C.3     1  UNL1        0.0570
      2 C         141.2737  144.6833  162.0081 C.3     1  UNL1        0.0331
      3 C         142.6913  144.4863  162.4574 C.3     1  UNL1        0.0735
      4 N         142.9755  143.9374  163.8241 N.3     1  UNL1       -0.2710
      5 C         141.8421  143.5855  164.7416 C.3     1  UNL1        0.0735
      6 C         140.4246  143.7825  164.2923 C.3     1  UNL1        0.0331
      7 N         138.7229  144.5284  162.4763 N.3     1  UNL1       -0.2934
      8 H         138.2072  144.8897  163.2788 H       1  UNL1        0.1236
      9 C         137.9368  143.3673  161.9434 C.3     1  UNL1        0.1152
     10 O         137.6292  138.1455  167.7216 O.2     1  UNL1       -0.2707
     11 C         137.9947  138.5024  166.3113 C.2     1  UNL1        0.2718
     12 C         138.6233  137.4754  165.4167 C.3     1  UNL1        0.2898
     13 O         138.9888  137.8323  164.0064 O.3     1  UNL1       -0.4628
     14 C         138.7258  139.2160  163.4906 C.ar    1  UNL1        0.1708
     15 C         139.0913  139.5729  162.0803 C.ar    1  UNL1        0.0411
     16 C         138.8283  140.9566  161.5645 C.ar    1  UNL1        0.0193
     17 C         138.1998  141.9836  162.4592 C.ar    1  UNL1        0.0765
     18 N         137.8342  141.6268  163.8695 N.ar    1  UNL1       -0.2304
     19 C         138.0973  140.2429  164.3852 C.ar    1  UNL1        0.1682
     20 N         137.7318  139.8861  165.7956 N.am    1  UNL1       -0.2639
     21 H         137.3192  140.5601  166.3827 H       1  UNL1        0.1565
     22 C         144.3929  143.7404  164.2734 C.3     1  UNL1        0.0970
     23 C         145.1328  142.4915  163.8953 C.3     1  UNL1        0.1278
     24 N         144.4377  141.4150  163.1155 N.ar    1  UNL1       -0.2791
     25 C         144.4194  141.4677  161.6165 C.ar    1  UNL1        0.2621
     26 O         145.0961  142.5969  160.8974 O.2     1  UNL1       -0.2669
     27 C         143.7244  140.3912  160.8367 C.ar    1  UNL1        0.0609
     28 C         143.0477  139.2620  161.5558 C.ar    1  UNL1        0.0079
     29 C         143.0660  139.2093  163.0548 C.ar    1  UNL1        0.0346
     30 C         142.3894  138.0802  163.7739 C.ar    1  UNL1        0.0078
     31 C         142.4077  138.0275  165.2729 C.ar    1  UNL1        0.0582
     32 C         143.1027  139.1040  166.0527 C.ar    1  UNL1        0.2311
     33 N         143.7794  140.2332  165.3336 N.ar    1  UNL1       -0.1939
     34 C         143.7611  140.2859  163.8346 C.ar    1  UNL1        0.1492
     35 O         143.1211  139.0513  167.5517 O.3     1  UNL1       -0.4329
     36 C         141.9746  139.6173  168.3361 C.ar    1  UNL1        0.1853
     37 C         141.9575  139.4983  169.8312 C.ar    1  UNL1        0.1397
     38 N         140.8110  140.0643  170.6157 N.ar    1  UNL1       -0.2192
     39 C         139.6816  140.7493  169.9049 C.ar    1  UNL1        0.1991
     40 N         139.6987  140.8683  168.4097 N.ar    1  UNL1       -0.2192
     41 C         140.8452  140.3023  167.6253 C.ar    1  UNL1        0.1397
@<TRIPOS>BOND
     1    10    11    2
     2    11    12    1
     3    12    13    1
     4    13    14    1
     5    14    15   ar
     6    15    16   ar
     7    16    17   ar
     8    17     9    1
     9     9     7    1
    10     7     1    1
    11     1     2    1
    12     2     3    1
    13     3     4    1
    14     4    22    1
    15    22    23    1
    16    23    24    1
    17    24    25   ar
    18    25    26    2
    19    25    27   ar
    20    27    28   ar
    21    28    29   ar
    22    29    30   ar
    23    30    31   ar
    24    31    32   ar
    25    32    35    1
    26    35    36    1
    27    36    37   ar
    28    37    38   ar
    29    38    39   ar
    30    39    40   ar
    31    40    41   ar
    32    32    33   ar
    33    33    34   ar
    34     4     5    1
    35     5     6    1
    36    17    18   ar
    37    18    19   ar
    38    19    20    1
    39    20    11   am
    40    19    14   ar
    41     6     1    1
    42    34    24   ar
    43    34    29   ar
    44    41    36   ar
    45     7     8    1
    46    20    21    1
@<TRIPOS>MOLECULE
*****
 41 46 0 0 0
SMALL
GASTEIGER

@<TRIPOS>ATOM
      1 C         140.2282  138.4272  161.9080 C.3     1  UNL1        0.0570
      2 C         140.3668  138.1808  163.3811 C.3     1  UNL1        0.0331
      3 C         141.6874  138.4018  164.0575 C.3     1  UNL1        0.0735
      4 N         142.8692  138.8691  163.2608 N.3     1  UNL1       -0.2710
      5 C         142.7305  139.1155  161.7876 C.3     1  UNL1        0.0735
      6 C         141.4101  138.8945  161.1113 C.3     1  UNL1        0.0331
      7 N         138.9077  138.2062  161.2317 N.3     1  UNL1       -0.2934
      8 H         139.0909  138.1832  160.2285 H       1  UNL1        0.1236
      9 C         137.7842  139.1771  161.4446 C.3     1  UNL1        0.1152
     10 O         141.6552  145.5683  159.2269 O.2     1  UNL1       -0.2707
     11 C         140.6575  144.9003  160.1261 C.2     1  UNL1        0.2718
     12 C         139.9526  145.6948  161.1852 C.3     1  UNL1        0.2898
     13 O         138.9549  145.0268  162.0844 O.3     1  UNL1       -0.4628
     14 C         138.6622  143.5644  161.9245 C.ar    1  UNL1        0.1708
     15 C         137.6646  142.8964  162.8237 C.ar    1  UNL1        0.0411
     16 C         137.3719  141.4340  162.6637 C.ar    1  UNL1        0.0193
     17 C         138.0769  140.6395  161.6045 C.ar    1  UNL1        0.0765
     18 N         139.0746  141.3074  160.7054 N.ar    1  UNL1       -0.2304
     19 C         139.3672  142.7699  160.8653 C.ar    1  UNL1        0.1682
     20 N         140.3649  143.4379  159.9662 N.am    1  UNL1       -0.2639
     21 H         140.8276  142.9164  159.2710 H       1  UNL1        0.1565
     22 C         144.1897  139.0901  163.9371 C.3     1  UNL1        0.0970
     23 C         144.4423  140.3616  164.6916 C.3     1  UNL1        0.1278
     24 N         143.9545  141.6694  164.1422 N.ar    1  UNL1       -0.2791
     25 C         144.7511  142.3856  163.0921 C.ar    1  UNL1        0.2621
     26 O         146.0355  141.7939  162.5915 O.2     1  UNL1       -0.2669
     27 C         144.2634  143.6933  162.5426 C.ar    1  UNL1        0.0609
     28 C         142.9790  144.2849  163.0432 C.ar    1  UNL1        0.0079
     29 C         142.1825  143.5687  164.0933 C.ar    1  UNL1        0.0346
     30 C         140.8982  144.1603  164.5939 C.ar    1  UNL1        0.0078
     31 C         140.1016  143.4441  165.6439 C.ar    1  UNL1        0.0582
     32 C         140.5894  142.1364  166.1934 C.ar    1  UNL1        0.2311
     33 N         141.8737  141.5448  165.6928 N.ar    1  UNL1       -0.1939
     34 C         142.6703  142.2610  164.6427 C.ar    1  UNL1        0.1492
     35 O         139.7928  141.4203  167.2434 O.3     1  UNL1       -0.4329
     36 C         140.2044  141.5030  168.6835 C.ar    1  UNL1        0.1853
     37 C         139.7671  140.4432  169.6507 C.ar    1  UNL1        0.1397
     38 N         140.1787  140.5260  171.0908 N.ar    1  UNL1       -0.2192
     39 C         141.0277  141.6686  171.5636 C.ar    1  UNL1        0.1991
     40 N         141.4651  142.7285  170.5964 N.ar    1  UNL1       -0.2192
     41 C         141.0534  142.6457  169.1564 C.ar    1  UNL1        0.1397
@<TRIPOS>BOND
     1    10    11    2
     2    11    12    1
     3    12    13    1
     4    13    14    1
     5    14    15   ar
     6    15    16   ar
     7    16    17   ar
     8    17     9    1
     9     9     7    1
    10     7     1    1
    11     1     2    1
    12     2     3    1
    13     3     4    1
    14     4    22    1
    15    22    23    1
    16    23    24    1
    17    24    25   ar
    18    25    26    2
    19    25    27   ar
    20    27    28   ar
    21    28    29   ar
    22    29    30   ar
    23    30    31   ar
    24    31    32   ar
    25    32    35    1
    26    35    36    1
    27    36    37   ar
    28    37    38   ar
    29    38    39   ar
    30    39    40   ar
    31    40    41   ar
    32    32    33   ar
    33    33    34   ar
    34     4     5    1
    35     5     6    1
    36    17    18   ar
    37    18    19   ar
    38    19    20    1
    39    20    11   am
    40    19    14   ar
    41     6     1    1
    42    34    24   ar
    43    34    29   ar
    44    41    36   ar
    45     7     8    1
    46    20    21    1
@<TRIPOS>MOLECULE
*****
 41 46 0 0 0
SMALL
GASTEIGER

@<TRIPOS>ATOM
      1 C         137.8784  140.1895  161.8355 C.3     1  UNL1        0.0570
      2 C         138.2003  141.1602  160.7382 C.3     1  UNL1        0.0331
      3 C         138.2720  142.6292  161.0334 C.3     1  UNL1        0.0735
      4 N         138.0218  143.1274  162.4259 N.3     1  UNL1       -0.2710
      5 C         137.6998  142.1566  163.5233 C.3     1  UNL1        0.0735
      6 C         137.6282  140.6878  163.2280 C.3     1  UNL1        0.0331
      7 N         137.8067  138.7207  161.5403 N.3     1  UNL1       -0.2934
      8 H         137.4744  138.2653  162.3903 H       1  UNL1        0.1236
      9 C         139.0380  137.9819  161.1063 C.3     1  UNL1        0.1152
     10 O         143.8006  138.1471  167.2739 O.2     1  UNL1       -0.2707
     11 C         143.5431  138.4302  165.8236 C.2     1  UNL1        0.2718
     12 C         144.6156  139.0513  164.9787 C.3     1  UNL1        0.2898
     13 O         144.3581  139.3344  163.5283 O.3     1  UNL1       -0.4628
     14 C         143.0281  138.9963  162.9228 C.ar    1  UNL1        0.1708
     15 C         142.7706  139.2793  161.4724 C.ar    1  UNL1        0.0411
     16 C         141.4406  138.9412  160.8669 C.ar    1  UNL1        0.0193
     17 C         140.3680  138.3200  161.7118 C.ar    1  UNL1        0.0765
     18 N         140.6255  138.0369  163.1622 N.ar    1  UNL1       -0.2304
     19 C         141.9556  138.3751  163.7677 C.ar    1  UNL1        0.1682
     20 N         142.2131  138.0920  165.2180 N.am    1  UNL1       -0.2639
     21 H         141.5091  137.6843  165.7725 H       1  UNL1        0.1565
     22 C         138.0934  144.5963  162.7211 C.3     1  UNL1        0.0970
     23 C         139.4265  145.2754  162.8289 C.3     1  UNL1        0.1278
     24 N         140.6883  144.4683  162.7462 N.ar    1  UNL1       -0.2791
     25 C         141.4740  144.4338  161.4689 C.ar    1  UNL1        0.2621
     26 O         140.9981  145.2063  160.2744 O.2     1  UNL1       -0.2669
     27 C         142.7357  143.6268  161.3861 C.ar    1  UNL1        0.0609
     28 C         143.2117  142.8543  162.5807 C.ar    1  UNL1        0.0079
     29 C         142.4259  142.8889  163.8579 C.ar    1  UNL1        0.0346
     30 C         142.9018  142.1165  165.0524 C.ar    1  UNL1        0.0078
     31 C         142.1161  142.1510  166.3297 C.ar    1  UNL1        0.0582
     32 C         140.8544  142.9580  166.4124 C.ar    1  UNL1        0.2311
     33 N         140.3784  143.7305  165.2179 N.ar    1  UNL1       -0.1939
     34 C         141.1642  143.6959  163.9406 C.ar    1  UNL1        0.1492
     35 O         140.0686  142.9926  167.6897 O.3     1  UNL1       -0.4329
     36 C         140.6144  142.3377  168.9239 C.ar    1  UNL1        0.1853
     37 C         141.4820  143.1184  169.8661 C.ar    1  UNL1        0.1397
     38 N         142.0277  142.4635  171.1003 N.ar    1  UNL1       -0.2192
     39 C         141.7058  141.0279  171.3924 C.ar    1  UNL1        0.1991
     40 N         140.8382  140.2471  170.4502 N.ar    1  UNL1       -0.2192
     41 C         140.2925  140.9020  169.2160 C.ar    1  UNL1        0.1397
@<TRIPOS>BOND
     1    10    11    2
     2    11    12    1
     3    12    13    1
     4    13    14    1
     5    14    15   ar
     6    15    16   ar
     7    16    17   ar
     8    17     9    1
     9     9     7    1
    10     7     1    1
    11     1     2    1
    12     2     3    1
    13     3     4    1
    14     4    22    1
    15    22    23    1
    16    23    24    1
    17    24    25   ar
    18    25    26    2
    19    25    27   ar
    20    27    28   ar
    21    28    29   ar
    22    29    30   ar
    23    30    31   ar
    24    31    32   ar
    25    32    35    1
    26    35    36    1
    27    36    37   ar
    28    37    38   ar
    29    38    39   ar
    30    39    40   ar
    31    40    41   ar
    32    32    33   ar
    33    33    34   ar
    34     4     5    1
    35     5     6    1
    36    17    18   ar
    37    18    19   ar
    38    19    20    1
    39    20    11   am
    40    19    14   ar
    41     6     1    1
    42    34    24   ar
    43    34    29   ar
    44    41    36   ar
    45     7     8    1
    46    20    21    1
@<TRIPOS>MOLECULE
*****
 41 46 0 0 0
SMALL
GASTEIGER

@<TRIPOS>ATOM
      1 C         144.6855  142.6292  162.0725 C.3     1  UNL1        0.0570
      2 C         143.9277  143.7113  162.7830 C.3     1  UNL1        0.0331
      3 C         142.8569  144.4749  162.0615 C.3     1  UNL1        0.0735
      4 N         142.5439  144.1562  160.6296 N.3     1  UNL1       -0.2710
      5 C         143.3017  143.0741  159.9191 C.3     1  UNL1        0.0735
      6 C         144.3724  142.3106  160.6405 C.3     1  UNL1        0.0331
      7 N         145.7562  141.8658  162.7940 N.3     1  UNL1       -0.2934
      8 H         146.2451  141.3098  162.0923 H       1  UNL1        0.1236
      9 C         145.3896  140.9312  163.9085 C.3     1  UNL1        0.1152
     10 O         138.1137  139.2956  166.1748 O.2     1  UNL1       -0.2707
     11 C         139.3045  138.9953  165.3136 C.2     1  UNL1        0.2718
     12 C         139.2610  137.8493  164.3467 C.3     1  UNL1        0.2898
     13 O         140.4518  137.5490  163.4856 O.3     1  UNL1       -0.4628
     14 C         141.6863  138.3945  163.5913 C.ar    1  UNL1        0.1708
     15 C         142.8771  138.0941  162.7301 C.ar    1  UNL1        0.0411
     16 C         144.1115  138.9396  162.8358 C.ar    1  UNL1        0.0193
     17 C         144.1551  140.0856  163.8028 C.ar    1  UNL1        0.0765
     18 N         142.9643  140.3860  164.6639 N.ar    1  UNL1       -0.2304
     19 C         141.7298  139.5404  164.5582 C.ar    1  UNL1        0.1682
     20 N         140.5390  139.8408  165.4194 N.am    1  UNL1       -0.2639
     21 H         140.5676  140.5929  166.0540 H       1  UNL1        0.1565
     22 C         141.4731  144.9197  159.9081 C.3     1  UNL1        0.0970
     23 C         140.0706  144.3891  159.8689 C.3     1  UNL1        0.1278
     24 N         139.3761  144.0103  161.1434 N.ar    1  UNL1       -0.2791
     25 C         139.2793  144.9991  162.2673 C.ar    1  UNL1        0.2621
     26 O         139.8771  146.3666  162.1166 O.2     1  UNL1       -0.2669
     27 C         138.5849  144.6203  163.5417 C.ar    1  UNL1        0.0609
     28 C         137.9872  143.2528  163.6924 C.ar    1  UNL1        0.0079
     29 C         138.0839  142.2640  162.5685 C.ar    1  UNL1        0.0346
     30 C         137.4863  140.8966  162.7192 C.ar    1  UNL1        0.0078
     31 C         137.5830  139.9078  161.5953 C.ar    1  UNL1        0.0582
     32 C         138.2775  140.2865  160.3209 C.ar    1  UNL1        0.2311
     33 N         138.8752  141.6541  160.1702 N.ar    1  UNL1       -0.1939
     34 C         138.7784  142.6428  161.2940 C.ar    1  UNL1        0.1492
     35 O         138.3743  139.2978  159.1971 O.3     1  UNL1       -0.4329
     36 C         139.7178  138.8158  158.7358 C.ar    1  UNL1        0.1853
     37 C         140.8439  138.6810  159.7175 C.ar    1  UNL1        0.1397
     38 N         142.1874  138.1990  159.2562 N.ar    1  UNL1       -0.2192
     39 C         142.4048  137.8518  157.8132 C.ar    1  UNL1        0.1991
     40 N         141.2786  137.9866  156.8315 N.ar    1  UNL1       -0.2192
     41 C         139.9352  138.4685  157.2928 C.ar    1  UNL1        0.1397
@<TRIPOS>BOND
     1    10    11    2
     2    11    12    1
     3    12    13    1
     4    13    14    1
     5    14    15   ar
     6    15    16   ar
     7    16    17   ar
     8    17     9    1
     9     9     7    1
    10     7     1    1
    11     1     2    1
    12     2     3    1
    13     3     4    1
    14     4    22    1
    15    22    23    1
    16    23    24    1
    17    24    25   ar
    18    25    26    2
    19    25    27   ar
    20    27    28   ar
    21    28    29   ar
    22    29    30   ar
    23    30    31   ar
    24    31    32   ar
    25    32    35    1
    26    35    36    1
    27    36    37   ar
    28    37    38   ar
    29    38    39   ar
    30    39    40   ar
    31    40    41   ar
    32    32    33   ar
    33    33    34   ar
    34     4     5    1
    35     5     6    1
    36    17    18   ar
    37    18    19   ar
    38    19    20    1
    39    20    11   am
    40    19    14   ar
    41     6     1    1
    42    34    24   ar
    43    34    29   ar
    44    41    36   ar
    45     7     8    1
    46    20    21    1
