@<TRIPOS>MOLECULE
*****
 31 35 0 0 0
SMALL
GASTEIGER

@<TRIPOS>ATOM
      1 N         139.4407  138.2518  164.8771 N.3     1  UNL1       -0.2725
      2 C         138.2972  138.4712  165.8228 C.3     1  UNL1        0.0740
      3 C         138.5274  139.1745  167.1276 C.3     1  UNL1        0.0401
      4 C         139.9010  139.6584  167.4866 C.3     1  UNL1        0.0927
      5 C         141.0445  139.4389  166.5409 C.3     1  UNL1        0.0401
      6 C         140.8143  138.7357  165.2362 C.3     1  UNL1        0.0740
      7 N         140.1312  140.3617  168.7914 N.ar    1  UNL1       -0.2788
      8 C         139.2103  140.3472  169.9752 C.ar    1  UNL1        0.3515
      9 O         137.8974  139.6269  170.0623 O.2     1  UNL1       -0.2444
     10 N         139.8326  141.1795  171.0569 N.ar    1  UNL1       -0.1736
     11 C         141.1383  141.7084  170.5415 C.ar    1  UNL1        0.1613
     12 N         142.1829  142.5849  171.1663 N.ar    1  UNL1       -0.3361
     13 C         143.4122  142.9560  170.3909 C.ar    1  UNL1        0.0736
     14 C         143.5967  142.4505  168.9906 C.ar    1  UNL1        0.0201
     15 C         142.5520  141.5740  168.3659 C.ar    1  UNL1        0.0219
     16 C         141.3228  141.2029  169.1413 C.ar    1  UNL1        0.0979
     17 H         142.0617  142.9166  172.0852 H       1  UNL1        0.1674
     18 C         139.2105  137.5485  163.5724 C.3     1  UNL1        0.0739
     19 C         139.0601  138.3425  162.3087 C.3     1  UNL1        0.0392
     20 C         137.8819  139.2538  162.1312 C.3     1  UNL1        0.0998
     21 O         138.2412  139.5825  159.1710 O.2     1  UNL1       -0.2705
     22 C         138.2529  140.7861  160.0662 C.2     1  UNL1        0.2739
     23 C         138.4443  142.1540  159.4812 C.3     1  UNL1        0.2900
     24 O         138.4560  143.3576  160.3764 O.3     1  UNL1       -0.4643
     25 C         138.2764  143.1933  161.8565 C.ar    1  UNL1        0.1528
     26 C         138.2881  144.3968  162.7516 C.ar    1  UNL1        0.0382
     27 C         138.1085  144.2324  164.2317 C.ar    1  UNL1        0.0032
     28 C         137.9171  142.8645  164.8167 C.ar    1  UNL1        0.0015
     29 C         137.9054  141.6610  163.9215 C.ar    1  UNL1        0.0180
     30 C         138.0850  141.8253  162.4415 C.ar    1  UNL1        0.0881
     31 N         138.0733  140.6217  161.5463 N.am    1  UNL1       -0.2529
@<TRIPOS>BOND
     1    21    22    2
     2    22    23    1
     3    23    24    1
     4    24    25    1
     5    25    26   ar
     6    26    27   ar
     7    27    28   ar
     8    28    29   ar
     9    29    30   ar
    10    30    31    1
    11    31    20    1
    12    20    19    1
    13    19    18    1
    14    18     1    1
    15     1     2    1
    16     2     3    1
    17     3     4    1
    18     4     7    1
    19     7     8   ar
    20     8     9    2
    21     8    10   ar
    22    10    11   ar
    23    11    12   ar
    24    12    13   ar
    25    13    14   ar
    26    14    15   ar
    27    15    16   ar
    28     4     5    1
    29     5     6    1
    30    31    22   am
    31     6     1    1
    32    30    25   ar
    33    16     7   ar
    34    16    11    1
    35    12    17    1
@<TRIPOS>MOLECULE
*****
 31 35 0 0 0
SMALL
GASTEIGER

@<TRIPOS>ATOM
      1 N         138.5747  139.8521  164.4445 N.3     1  UNL1       -0.2725
      2 C         139.4002  141.0735  164.7211 C.3     1  UNL1        0.0740
      3 C         139.8837  141.3525  166.1134 C.3     1  UNL1        0.0401
      4 C         139.5416  140.4101  167.2291 C.3     1  UNL1        0.0927
      5 C         138.7160  139.1886  166.9524 C.3     1  UNL1        0.0401
      6 C         138.2325  138.9096  165.5602 C.3     1  UNL1        0.0740
      7 N         140.0250  140.6891  168.6213 N.ar    1  UNL1       -0.2788
      8 C         139.2910  140.3702  169.8900 C.ar    1  UNL1        0.3515
      9 O         137.9447  139.7163  169.9891 O.2     1  UNL1       -0.2444
     10 N         140.1397  140.8199  171.0421 N.ar    1  UNL1       -0.1736
     11 C         141.3983  141.4168  170.4855 C.ar    1  UNL1        0.1613
     12 N         142.5996  142.0235  171.1478 N.ar    1  UNL1       -0.3361
     13 C         143.7302  142.5493  170.3139 C.ar    1  UNL1        0.0736
     14 C         143.6593  142.4685  168.8177 C.ar    1  UNL1        0.0201
     15 C         142.4579  141.8617  168.1555 C.ar    1  UNL1        0.0219
     16 C         141.3274  141.3359  168.9894 C.ar    1  UNL1        0.0979
     17 H         142.6460  142.0765  172.1298 H       1  UNL1        0.1674
     18 C         138.0912  139.5731  163.0522 C.3     1  UNL1        0.0739
     19 C         138.3777  138.2480  162.4102 C.3     1  UNL1        0.0392
     20 C         139.6832  137.5560  162.6687 C.3     1  UNL1        0.0998
     21 O         140.1905  138.3581  159.8228 O.2     1  UNL1       -0.2705
     22 C         141.2269  138.6260  160.8737 C.2     1  UNL1        0.2739
     23 C         142.5168  139.2950  160.5015 C.3     1  UNL1        0.2900
     24 O         143.5531  139.5629  161.5523 O.3     1  UNL1       -0.4643
     25 C         143.2995  139.1619  162.9754 C.ar    1  UNL1        0.1528
     26 C         144.3358  139.4298  164.0262 C.ar    1  UNL1        0.0382
     27 C         144.0822  139.0287  165.4491 C.ar    1  UNL1        0.0032
     28 C         142.7922  138.3598  165.8212 C.ar    1  UNL1        0.0015
     29 C         141.7559  138.0919  164.7704 C.ar    1  UNL1        0.0180
     30 C         142.0096  138.4929  163.3475 C.ar    1  UNL1        0.0881
     31 N         140.9732  138.2250  162.2966 N.am    1  UNL1       -0.2529
@<TRIPOS>BOND
     1    21    22    2
     2    22    23    1
     3    23    24    1
     4    24    25    1
     5    25    26   ar
     6    26    27   ar
     7    27    28   ar
     8    28    29   ar
     9    29    30   ar
    10    30    31    1
    11    31    20    1
    12    20    19    1
    13    19    18    1
    14    18     1    1
    15     1     2    1
    16     2     3    1
    17     3     4    1
    18     4     7    1
    19     7     8   ar
    20     8     9    2
    21     8    10   ar
    22    10    11   ar
    23    11    12   ar
    24    12    13   ar
    25    13    14   ar
    26    14    15   ar
    27    15    16   ar
    28     4     5    1
    29     5     6    1
    30    31    22   am
    31     6     1    1
    32    30    25   ar
    33    16     7   ar
    34    16    11    1
    35    12    17    1
@<TRIPOS>MOLECULE
*****
 31 35 0 0 0
SMALL
GASTEIGER

@<TRIPOS>ATOM
      1 N         140.6739  138.9131  162.9486 N.3     1  UNL1       -0.2725
      2 C         139.9390  138.3461  164.1268 C.3     1  UNL1        0.0740
      3 C         140.3574  138.7139  165.5196 C.3     1  UNL1        0.0401
      4 C         141.5107  139.6488  165.7340 C.3     1  UNL1        0.0927
      5 C         142.2456  140.2159  164.5556 C.3     1  UNL1        0.0401
      6 C         141.8272  139.8480  163.1629 C.3     1  UNL1        0.0740
      7 N         141.9291  140.0167  167.1267 N.ar    1  UNL1       -0.2788
      8 C         142.8943  139.2564  167.9871 C.ar    1  UNL1        0.3515
      9 O         143.6105  137.9948  167.6059 O.2     1  UNL1       -0.2444
     10 N         143.0175  139.9792  169.2956 N.ar    1  UNL1       -0.1736
     11 C         142.1285  141.1863  169.2440 C.ar    1  UNL1        0.1613
     12 N         141.8446  142.2672  170.2444 N.ar    1  UNL1       -0.3361
     13 C         140.8880  143.3715  169.9043 C.ar    1  UNL1        0.0736
     14 C         140.2153  143.3946  168.5637 C.ar    1  UNL1        0.0201
     15 C         140.4992  142.3136  167.5633 C.ar    1  UNL1        0.0219
     16 C         141.4558  141.2094  167.9035 C.ar    1  UNL1        0.0979
     17 H         142.2861  142.2520  171.1242 H       1  UNL1        0.1674
     18 C         140.2555  138.5453  161.5559 C.3     1  UNL1        0.0739
     19 C         138.8618  138.0551  161.2963 C.3     1  UNL1        0.0392
     20 C         137.7165  139.0237  161.2820 C.3     1  UNL1        0.0998
     21 O         138.1675  139.8708  158.4396 O.2     1  UNL1       -0.2705
     22 C         138.1855  140.8918  159.5384 C.2     1  UNL1        0.2739
     23 C         138.4290  142.3364  159.2160 C.3     1  UNL1        0.2900
     24 O         138.4470  143.3574  160.3147 O.3     1  UNL1       -0.4643
     25 C         138.2215  142.9338  161.7359 C.ar    1  UNL1        0.1528
     26 C         138.2394  143.9548  162.8346 C.ar    1  UNL1        0.0382
     27 C         138.0139  143.5313  164.2558 C.ar    1  UNL1        0.0032
     28 C         137.7705  142.0867  164.5782 C.ar    1  UNL1        0.0015
     29 C         137.7525  141.0657  163.4795 C.ar    1  UNL1        0.0180
     30 C         137.9780  141.4893  162.0584 C.ar    1  UNL1        0.0881
     31 N         137.9600  140.4683  160.9596 N.am    1  UNL1       -0.2529
@<TRIPOS>BOND
     1    21    22    2
     2    22    23    1
     3    23    24    1
     4    24    25    1
     5    25    26   ar
     6    26    27   ar
     7    27    28   ar
     8    28    29   ar
     9    29    30   ar
    10    30    31    1
    11    31    20    1
    12    20    19    1
    13    19    18    1
    14    18     1    1
    15     1     2    1
    16     2     3    1
    17     3     4    1
    18     4     7    1
    19     7     8   ar
    20     8     9    2
    21     8    10   ar
    22    10    11   ar
    23    11    12   ar
    24    12    13   ar
    25    13    14   ar
    26    14    15   ar
    27    15    16   ar
    28     4     5    1
    29     5     6    1
    30    31    22   am
    31     6     1    1
    32    30    25   ar
    33    16     7   ar
    34    16    11    1
    35    12    17    1
@<TRIPOS>MOLECULE
*****
 31 35 0 0 0
SMALL
GASTEIGER

@<TRIPOS>ATOM
      1 N         139.8781  138.3378  164.7644 N.3     1  UNL1       -0.2725
      2 C         141.2378  138.5103  165.3737 C.3     1  UNL1        0.0740
      3 C         141.3842  139.1979  166.6988 C.3     1  UNL1        0.0401
      4 C         140.1708  139.7130  167.4146 C.3     1  UNL1        0.0927
      5 C         138.8110  139.5405  166.8052 C.3     1  UNL1        0.0401
      6 C         138.6646  138.8529  165.4802 C.3     1  UNL1        0.0740
      7 N         140.3171  140.4006  168.7396 N.ar    1  UNL1       -0.2788
      8 C         139.3336  140.3527  169.8711 C.ar    1  UNL1        0.3515
      9 O         138.0312  139.6087  169.8764 O.2     1  UNL1       -0.2444
     10 N         139.8813  141.1793  170.9966 N.ar    1  UNL1       -0.1736
     11 C         141.2033  141.7382  170.5606 C.ar    1  UNL1        0.1613
     12 N         142.1965  142.6231  171.2537 N.ar    1  UNL1       -0.3361
     13 C         143.4592  143.0269  170.5517 C.ar    1  UNL1        0.0736
     14 C         143.7286  142.5456  169.1567 C.ar    1  UNL1        0.0201
     15 C         142.7352  141.6606  168.4638 C.ar    1  UNL1        0.0219
     16 C         141.4726  141.2569  169.1657 C.ar    1  UNL1        0.0979
     17 H         142.0197  142.9390  172.1692 H       1  UNL1        0.1674
     18 C         139.7317  137.6502  163.4394 C.3     1  UNL1        0.0739
     19 C         140.5546  138.0970  162.2676 C.3     1  UNL1        0.0392
     20 C         140.2994  139.4347  161.6384 C.3     1  UNL1        0.0998
     21 O         137.3299  139.6372  161.2629 O.2     1  UNL1       -0.2705
     22 C         138.0339  140.5782  162.1951 C.2     1  UNL1        0.2739
     23 C         137.2532  141.6204  162.9395 C.3     1  UNL1        0.2900
     24 O         137.9571  142.5614  163.8717 O.3     1  UNL1       -0.4643
     25 C         139.4420  142.4601  164.0595 C.ar    1  UNL1        0.1528
     26 C         140.1459  143.4010  164.9917 C.ar    1  UNL1        0.0382
     27 C         141.6306  143.2997  165.1795 C.ar    1  UNL1        0.0032
     28 C         142.4114  142.2575  164.4350 C.ar    1  UNL1        0.0015
     29 C         141.7074  141.3166  163.5029 C.ar    1  UNL1        0.0180
     30 C         140.2227  141.4179  163.3151 C.ar    1  UNL1        0.0881
     31 N         139.5186  140.4769  162.3829 N.am    1  UNL1       -0.2529
@<TRIPOS>BOND
     1    21    22    2
     2    22    23    1
     3    23    24    1
     4    24    25    1
     5    25    26   ar
     6    26    27   ar
     7    27    28   ar
     8    28    29   ar
     9    29    30   ar
    10    30    31    1
    11    31    20    1
    12    20    19    1
    13    19    18    1
    14    18     1    1
    15     1     2    1
    16     2     3    1
    17     3     4    1
    18     4     7    1
    19     7     8   ar
    20     8     9    2
    21     8    10   ar
    22    10    11   ar
    23    11    12   ar
    24    12    13   ar
    25    13    14   ar
    26    14    15   ar
    27    15    16   ar
    28     4     5    1
    29     5     6    1
    30    31    22   am
    31     6     1    1
    32    30    25   ar
    33    16     7   ar
    34    16    11    1
    35    12    17    1
@<TRIPOS>MOLECULE
*****
 31 35 0 0 0
SMALL
GASTEIGER

@<TRIPOS>ATOM
      1 N         141.0058  138.6885  162.3896 N.3     1  UNL1       -0.2725
      2 C         140.6721  140.0852  162.8229 C.3     1  UNL1        0.0740
      3 C         140.3272  140.3637  164.2560 C.3     1  UNL1        0.0401
      4 C         140.3160  139.2454  165.2557 C.3     1  UNL1        0.0927
      5 C         140.6498  137.8486  164.8223 C.3     1  UNL1        0.0401
      6 C         140.9947  137.5702  163.3893 C.3     1  UNL1        0.0740
      7 N         139.9711  139.5238  166.6886 N.ar    1  UNL1       -0.2788
      8 C         138.6524  139.2472  167.3479 C.ar    1  UNL1        0.3515
      9 O         137.4472  138.6436  166.6899 O.2     1  UNL1       -0.2444
     10 N         138.7506  139.6802  168.7806 N.ar    1  UNL1       -0.1736
     11 C         140.1300  140.2244  169.0070 C.ar    1  UNL1        0.1613
     12 N         140.7966  140.7954  170.2233 N.ar    1  UNL1       -0.3361
     13 C         142.2176  141.2699  170.1467 C.ar    1  UNL1        0.0736
     14 C         142.9719  141.1732  168.8537 C.ar    1  UNL1        0.0201
     15 C         142.3052  140.6022  167.6374 C.ar    1  UNL1        0.0219
     16 C         140.8843  140.1278  167.7140 C.ar    1  UNL1        0.0979
     17 H         140.3015  140.8589  171.0719 H       1  UNL1        0.1674
     18 C         141.3507  138.4100  160.9567 C.3     1  UNL1        0.0739
     19 C         142.5910  137.6363  160.6204 C.3     1  UNL1        0.0392
     20 C         143.9400  138.2684  160.7959 C.3     1  UNL1        0.0998
     21 O         143.8419  139.6260  158.1225 O.2     1  UNL1       -0.2705
     22 C         144.0384  140.4372  159.3688 C.2     1  UNL1        0.2739
     23 C         144.1859  141.9272  159.2785 C.3     1  UNL1        0.2900
     24 O         144.3825  142.7384  160.5247 O.3     1  UNL1       -0.4643
     25 C         144.4316  142.0596  161.8615 C.ar    1  UNL1        0.1528
     26 C         144.6281  142.8708  163.1078 C.ar    1  UNL1        0.0382
     27 C         144.6772  142.1920  164.4445 C.ar    1  UNL1        0.0032
     28 C         144.5297  140.7020  164.5349 C.ar    1  UNL1        0.0015
     29 C         144.3331  139.8908  163.2886 C.ar    1  UNL1        0.0180
     30 C         144.2841  140.5696  161.9519 C.ar    1  UNL1        0.0881
     31 N         144.0875  139.7584  160.7055 N.am    1  UNL1       -0.2529
@<TRIPOS>BOND
     1    21    22    2
     2    22    23    1
     3    23    24    1
     4    24    25    1
     5    25    26   ar
     6    26    27   ar
     7    27    28   ar
     8    28    29   ar
     9    29    30   ar
    10    30    31    1
    11    31    20    1
    12    20    19    1
    13    19    18    1
    14    18     1    1
    15     1     2    1
    16     2     3    1
    17     3     4    1
    18     4     7    1
    19     7     8   ar
    20     8     9    2
    21     8    10   ar
    22    10    11   ar
    23    11    12   ar
    24    12    13   ar
    25    13    14   ar
    26    14    15   ar
    27    15    16   ar
    28     4     5    1
    29     5     6    1
    30    31    22   am
    31     6     1    1
    32    30    25   ar
    33    16     7   ar
    34    16    11    1
    35    12    17    1
@<TRIPOS>MOLECULE
*****
 31 35 0 0 0
SMALL
GASTEIGER

@<TRIPOS>ATOM
      1 N         143.6122  142.6286  163.6731 N.3     1  UNL1       -0.2725
      2 C         142.6867  141.4491  163.7220 C.3     1  UNL1        0.0740
      3 C         142.2581  140.8864  165.0448 C.3     1  UNL1        0.0401
      4 C         142.7550  141.5032  166.3186 C.3     1  UNL1        0.0927
      5 C         143.6804  142.6827  166.2697 C.3     1  UNL1        0.0401
      6 C         144.1090  143.2454  164.9470 C.3     1  UNL1        0.0740
      7 N         142.3264  140.9405  167.6414 N.ar    1  UNL1       -0.2788
      8 C         142.6373  139.5669  168.1576 C.ar    1  UNL1        0.3515
      9 O         143.4315  138.5148  167.4418 O.2     1  UNL1       -0.2444
     10 N         142.0148  139.4301  169.5154 N.ar    1  UNL1       -0.1736
     11 C         141.3190  140.7192  169.8384 C.ar    1  UNL1        0.1613
     12 N         140.5349  141.1634  171.0374 N.ar    1  UNL1       -0.3361
     13 C         139.9434  142.5413  171.0783 C.ar    1  UNL1        0.0736
     14 C         140.1361  143.4749  169.9200 C.ar    1  UNL1        0.0201
     15 C         140.9201  143.0305  168.7210 C.ar    1  UNL1        0.0219
     16 C         141.5116  141.6526  168.6801 C.ar    1  UNL1        0.0979
     17 H         140.4086  140.5507  171.7976 H       1  UNL1        0.1674
     18 C         144.0407  143.1912  162.3504 C.3     1  UNL1        0.0739
     19 C         143.1309  143.0903  161.1621 C.3     1  UNL1        0.0392
     20 C         142.0428  144.1035  160.9624 C.3     1  UNL1        0.0998
     21 O         140.7243  142.8506  158.5766 O.2     1  UNL1       -0.2705
     22 C         139.9454  143.0572  159.8418 C.2     1  UNL1        0.2739
     23 C         138.5071  142.6373  159.9140 C.3     1  UNL1        0.2900
     24 O         137.7282  142.8439  161.1791 O.3     1  UNL1       -0.4643
     25 C         138.3874  143.4703  162.3721 C.ar    1  UNL1        0.1528
     26 C         137.6085  143.6768  163.6372 C.ar    1  UNL1        0.0382
     27 C         138.2677  144.3032  164.8300 C.ar    1  UNL1        0.0032
     28 C         139.7059  144.7231  164.7578 C.ar    1  UNL1        0.0015
     29 C         140.4849  144.5166  163.4927 C.ar    1  UNL1        0.0180
     30 C         139.8256  143.8902  162.2998 C.ar    1  UNL1        0.0881
     31 N         140.6046  143.6836  161.0346 N.am    1  UNL1       -0.2529
@<TRIPOS>BOND
     1    21    22    2
     2    22    23    1
     3    23    24    1
     4    24    25    1
     5    25    26   ar
     6    26    27   ar
     7    27    28   ar
     8    28    29   ar
     9    29    30   ar
    10    30    31    1
    11    31    20    1
    12    20    19    1
    13    19    18    1
    14    18     1    1
    15     1     2    1
    16     2     3    1
    17     3     4    1
    18     4     7    1
    19     7     8   ar
    20     8     9    2
    21     8    10   ar
    22    10    11   ar
    23    11    12   ar
    24    12    13   ar
    25    13    14   ar
    26    14    15   ar
    27    15    16   ar
    28     4     5    1
    29     5     6    1
    30    31    22   am
    31     6     1    1
    32    30    25   ar
    33    16     7   ar
    34    16    11    1
    35    12    17    1
@<TRIPOS>MOLECULE
*****
 31 35 0 0 0
SMALL
GASTEIGER

@<TRIPOS>ATOM
      1 N         144.2434  141.9612  164.0130 N.3     1  UNL1       -0.2725
      2 C         143.7625  140.6526  164.5663 C.3     1  UNL1        0.0740
      3 C         143.2187  140.5831  165.9626 C.3     1  UNL1        0.0401
      4 C         143.1559  141.8223  166.8056 C.3     1  UNL1        0.0927
      5 C         143.6369  143.1309  166.2522 C.3     1  UNL1        0.0401
      6 C         144.1806  143.2004  164.8559 C.3     1  UNL1        0.0740
      7 N         142.6123  141.7528  168.2018 N.ar    1  UNL1       -0.2788
      8 C         143.2893  142.2657  169.4381 C.ar    1  UNL1        0.3515
      9 O         144.6289  142.9382  169.4953 O.2     1  UNL1       -0.2444
     10 N         142.3916  141.9882  170.6073 N.ar    1  UNL1       -0.1736
     11 C         141.1596  141.3037  170.0936 C.ar    1  UNL1        0.1613
     12 N         139.9314  140.7941  170.7875 N.ar    1  UNL1       -0.3361
     13 C         138.8393  140.1390  169.9947 C.ar    1  UNL1        0.0736
     14 C         138.9758  139.9935  168.5080 C.ar    1  UNL1        0.0201
     15 C         140.2041  140.5032  167.8141 C.ar    1  UNL1        0.0219
     16 C         141.2960  141.1582  168.6069 C.ar    1  UNL1        0.0979
     17 H         139.8419  140.8896  171.7633 H       1  UNL1        0.1674
     18 C         144.7871  142.0307  162.6168 C.3     1  UNL1        0.0739
     19 C         144.0559  142.8114  161.5652 C.3     1  UNL1        0.0392
     20 C         142.6317  142.4749  161.2358 C.3     1  UNL1        0.0998
     21 O         142.3584  144.5410  159.0779 O.2     1  UNL1       -0.2705
     22 C         141.4327  144.5620  160.2580 C.2     1  UNL1        0.2739
     23 C         140.3703  145.6161  160.3591 C.3     1  UNL1        0.2900
     24 O         139.4445  145.6372  161.5391 O.3     1  UNL1       -0.4643
     25 C         139.5811  144.6041  162.6181 C.ar    1  UNL1        0.1528
     26 C         138.6554  144.6251  163.7981 C.ar    1  UNL1        0.0382
     27 C         138.7920  143.5921  164.8770 C.ar    1  UNL1        0.0032
     28 C         139.8544  142.5380  164.7759 C.ar    1  UNL1        0.0015
     29 C         140.7801  142.5169  163.5959 C.ar    1  UNL1        0.0180
     30 C         140.6435  143.5500  162.5170 C.ar    1  UNL1        0.0881
     31 N         141.5693  143.5290  161.3369 N.am    1  UNL1       -0.2529
@<TRIPOS>BOND
     1    21    22    2
     2    22    23    1
     3    23    24    1
     4    24    25    1
     5    25    26   ar
     6    26    27   ar
     7    27    28   ar
     8    28    29   ar
     9    29    30   ar
    10    30    31    1
    11    31    20    1
    12    20    19    1
    13    19    18    1
    14    18     1    1
    15     1     2    1
    16     2     3    1
    17     3     4    1
    18     4     7    1
    19     7     8   ar
    20     8     9    2
    21     8    10   ar
    22    10    11   ar
    23    11    12   ar
    24    12    13   ar
    25    13    14   ar
    26    14    15   ar
    27    15    16   ar
    28     4     5    1
    29     5     6    1
    30    31    22   am
    31     6     1    1
    32    30    25   ar
    33    16     7   ar
    34    16    11    1
    35    12    17    1
@<TRIPOS>MOLECULE
*****
 31 35 0 0 0
SMALL
GASTEIGER

@<TRIPOS>ATOM
      1 N         139.6193  138.6510  164.5618 N.3     1  UNL1       -0.2725
      2 C         138.4599  139.2696  165.2851 C.3     1  UNL1        0.0740
      3 C         138.6560  139.8596  166.6502 C.3     1  UNL1        0.0401
      4 C         140.0115  139.8309  167.2920 C.3     1  UNL1        0.0927
      5 C         141.1709  139.2122  166.5687 C.3     1  UNL1        0.0401
      6 C         140.9747  138.6223  165.2036 C.3     1  UNL1        0.0740
      7 N         140.2076  140.4208  168.6571 N.ar    1  UNL1       -0.2788
      8 C         139.2700  140.2837  169.8198 C.ar    1  UNL1        0.3515
      9 O         137.9716  139.5325  169.8217 O.2     1  UNL1       -0.2444
     10 N         139.8586  141.0296  170.9805 N.ar    1  UNL1       -0.1736
     11 C         141.1601  141.6278  170.5350 C.ar    1  UNL1        0.1613
     12 N         142.1766  142.4664  171.2515 N.ar    1  UNL1       -0.3361
     13 C         143.4089  142.9289  170.5320 C.ar    1  UNL1        0.0736
     14 C         143.6246  142.5526  169.0959 C.ar    1  UNL1        0.0201
     15 C         142.6080  141.7139  168.3796 C.ar    1  UNL1        0.0219
     16 C         141.3758  141.2515  169.0991 C.ar    1  UNL1        0.0979
     17 H         142.0350  142.7133  172.1939 H       1  UNL1        0.1674
     18 C         139.4232  138.0610  163.1967 C.3     1  UNL1        0.0739
     19 C         140.2495  138.5480  162.0434 C.3     1  UNL1        0.0392
     20 C         140.2482  140.0038  161.6818 C.3     1  UNL1        0.0998
     21 O         143.2148  140.0239  162.1273 O.2     1  UNL1       -0.2705
     22 C         142.3433  141.0184  162.8354 C.2     1  UNL1        0.2739
     23 C         142.9551  142.0230  163.7662 C.3     1  UNL1        0.2900
     24 O         142.0837  143.0175  164.4743 O.3     1  UNL1       -0.4643
     25 C         140.6003  143.0075  164.2516 C.ar    1  UNL1        0.1528
     26 C         139.7288  144.0020  164.9597 C.ar    1  UNL1        0.0382
     27 C         138.2455  143.9920  164.7369 C.ar    1  UNL1        0.0032
     28 C         137.6337  142.9874  163.8061 C.ar    1  UNL1        0.0015
     29 C         138.5051  141.9929  163.0980 C.ar    1  UNL1        0.0180
     30 C         139.9884  142.0029  163.3207 C.ar    1  UNL1        0.0881
     31 N         140.8600  141.0084  162.6126 N.am    1  UNL1       -0.2529
@<TRIPOS>BOND
     1    21    22    2
     2    22    23    1
     3    23    24    1
     4    24    25    1
     5    25    26   ar
     6    26    27   ar
     7    27    28   ar
     8    28    29   ar
     9    29    30   ar
    10    30    31    1
    11    31    20    1
    12    20    19    1
    13    19    18    1
    14    18     1    1
    15     1     2    1
    16     2     3    1
    17     3     4    1
    18     4     7    1
    19     7     8   ar
    20     8     9    2
    21     8    10   ar
    22    10    11   ar
    23    11    12   ar
    24    12    13   ar
    25    13    14   ar
    26    14    15   ar
    27    15    16   ar
    28     4     5    1
    29     5     6    1
    30    31    22   am
    31     6     1    1
    32    30    25   ar
    33    16     7   ar
    34    16    11    1
    35    12    17    1
@<TRIPOS>MOLECULE
*****
 31 35 0 0 0
SMALL
GASTEIGER

@<TRIPOS>ATOM
      1 N         141.2509  140.1648  162.5827 N.3     1  UNL1       -0.2725
      2 C         142.6310  140.4782  163.0799 C.3     1  UNL1        0.0740
      3 C         142.9063  140.5171  164.5539 C.3     1  UNL1        0.0401
      4 C         141.8016  140.2426  165.5308 C.3     1  UNL1        0.0927
      5 C         140.4215  139.9292  165.0335 C.3     1  UNL1        0.0401
      6 C         140.1462  139.8903  163.5596 C.3     1  UNL1        0.0740
      7 N         142.0769  140.2815  167.0047 N.ar    1  UNL1       -0.2788
      8 C         142.9230  139.3073  167.7696 C.ar    1  UNL1        0.3515
      9 O         143.6423  138.1232  167.1948 O.2     1  UNL1       -0.2444
     10 N         142.9235  139.7251  169.2102 N.ar    1  UNL1       -0.1736
     11 C         142.0776  140.9576  169.3357 C.ar    1  UNL1        0.1613
     12 N         141.7163  141.8110  170.5151 N.ar    1  UNL1       -0.3361
     13 C         140.8317  143.0085  170.3314 C.ar    1  UNL1        0.0736
     14 C         140.3085  143.3524  168.9683 C.ar    1  UNL1        0.0201
     15 C         140.6699  142.4988  167.7889 C.ar    1  UNL1        0.0219
     16 C         141.5544  141.3014  167.9727 C.ar    1  UNL1        0.0979
     17 H         142.0598  141.5853  171.4097 H       1  UNL1        0.1674
     18 C         140.9756  140.1259  161.1088 C.3     1  UNL1        0.0739
     19 C         141.4130  141.2631  160.2338 C.3     1  UNL1        0.0392
     20 C         140.8034  142.6223  160.4099 C.3     1  UNL1        0.0998
     21 O         143.5480  143.7587  160.8292 O.2     1  UNL1       -0.2705
     22 C         142.4751  143.9929  161.8510 C.2     1  UNL1        0.2739
     23 C         142.7745  144.7954  163.0825 C.3     1  UNL1        0.2900
     24 O         141.7017  145.0296  164.1043 O.3     1  UNL1       -0.4643
     25 C         140.3293  144.4614  163.8946 C.ar    1  UNL1        0.1528
     26 C         139.2565  144.6956  164.9164 C.ar    1  UNL1        0.0382
     27 C         137.8842  144.1274  164.7068 C.ar    1  UNL1        0.0032
     28 C         137.5848  143.3250  163.4753 C.ar    1  UNL1        0.0015
     29 C         138.6576  143.0908  162.4535 C.ar    1  UNL1        0.0180
     30 C         140.0299  143.6590  162.6632 C.ar    1  UNL1        0.0881
     31 N         141.1028  143.4247  161.6414 N.am    1  UNL1       -0.2529
@<TRIPOS>BOND
     1    21    22    2
     2    22    23    1
     3    23    24    1
     4    24    25    1
     5    25    26   ar
     6    26    27   ar
     7    27    28   ar
     8    28    29   ar
     9    29    30   ar
    10    30    31    1
    11    31    20    1
    12    20    19    1
    13    19    18    1
    14    18     1    1
    15     1     2    1
    16     2     3    1
    17     3     4    1
    18     4     7    1
    19     7     8   ar
    20     8     9    2
    21     8    10   ar
    22    10    11   ar
    23    11    12   ar
    24    12    13   ar
    25    13    14   ar
    26    14    15   ar
    27    15    16   ar
    28     4     5    1
    29     5     6    1
    30    31    22   am
    31     6     1    1
    32    30    25   ar
    33    16     7   ar
    34    16    11    1
    35    12    17    1
