@<TRIPOS>MOLECULE
*****
 44 50 0 0 0
SMALL
GASTEIGER

@<TRIPOS>ATOM
      1 C         141.8037  141.0630  160.5664 C.3     1  UNL1        0.1354
      2 N         142.1080  140.1318  159.4305 N.3     1  UNL1       -0.2823
      3 C         141.7180  138.6862  159.5208 C.3     1  UNL1        0.1166
      4 C         141.0237  138.1718  160.7470 C.3     1  UNL1        0.0511
      5 C         140.7194  139.1030  161.8828 C.2     1  UNL1       -0.0038
      6 C         141.1094  140.5486  161.7926 C.2     1  UNL1        0.0768
      7 N         140.6816  141.2241  163.0617 N.2     1  UNL1       -0.2520
      8 C         140.0273  140.1961  163.9363 C.2     1  UNL1        0.0627
      9 C         139.4132  140.2843  165.3019 C.3     1  UNL1        0.0717
     10 C         138.8224  139.0615  165.9390 C.2     1  UNL1       -0.0198
     11 C         138.8458  137.7506  165.2104 C.2     1  UNL1       -0.0042
     12 C         139.4599  137.6624  163.8448 C.2     1  UNL1        0.0006
     13 C         140.0506  138.8851  163.2077 C.2     1  UNL1        0.0111
     14 H         143.1183  140.1561  159.2924 H       1  UNL1        0.1245
     15 C         140.4257  144.4381  162.1349 C.ar    1  UNL1        0.0784
     16 C         141.5883  144.8491  162.9890 C.ar    1  UNL1        0.0271
     17 C         142.8226  143.9981  163.0356 C.ar    1  UNL1        0.0987
     18 N         142.8944  142.7360  162.2280 N.ar    1  UNL1       -0.2462
     19 C         141.7318  142.3251  161.3740 C.ar    1  UNL1        0.0812
     20 C         140.4975  143.1760  161.3274 C.ar    1  UNL1        0.0232
     21 C         139.1913  145.2890  162.0883 C.2     1  UNL1        0.3413
     22 O         139.2277  146.6268  161.4109 O.2     1  UNL1       -0.2449
     23 O         137.9205  144.8021  162.7192 O.3     1  UNL1       -0.4454
     24 C         138.5294  144.7566  165.2445 C.3     1  UNL1        0.0513
     25 C         137.9646  144.0777  164.0320 C.3     1  UNL1        0.2089
     26 C         142.4730  142.0157  159.6208 C.ar    1  UNL1        0.0407
     27 C         143.9523  142.1792  159.4340 C.ar    1  UNL1        0.1193
     28 N         144.1740  143.2368  158.3936 N.ar    1  UNL1       -0.1679
     29 N         142.8318  143.7269  157.9374 N.ar    1  UNL1       -0.2476
     30 C         142.5842  144.7857  156.9042 C.3     1  UNL1        0.1537
     31 C         141.7804  142.9722  158.6958 C.ar    1  UNL1        0.0944
     32 C         142.0222  137.7549  158.3849 C.ar    1  UNL1        0.1318
     33 N         142.6570  136.4009  158.5008 N.ar    1  UNL1       -0.2298
     34 C         142.7723  135.8233  157.1213 C.ar    1  UNL1        0.0996
     35 C         142.2087  136.8205  156.1528 C.ar    1  UNL1        0.0927
     36 N         141.7451  138.0143  156.9337 N.ar    1  UNL1       -0.3386
     37 H         141.3316  138.8256  156.5595 H       1  UNL1        0.1672
     38 C         143.3497  134.4837  156.7716 C.ar    1  UNL1        0.0193
     39 C         143.1465  133.9146  155.3988 C.ar    1  UNL1        0.0039
     40 C         143.7239  132.5751  155.0491 C.ar    1  UNL1        0.0297
     41 C         144.5046  131.8047  156.0723 C.ar    1  UNL1        0.1401
     42 F         145.0820  130.4652  155.7227 F       1  UNL1       -0.2042
     43 C         144.7078  132.3739  157.4452 C.ar    1  UNL1        0.0297
     44 C         144.1304  133.7134  157.7948 C.ar    1  UNL1        0.0039
@<TRIPOS>BOND
     1    24    25    1
     2    25    23    1
     3    23    21    1
     4    21    22    2
     5    21    15    1
     6    15    16   ar
     7    16    17   ar
     8    17    18   ar
     9    18    19   ar
    10     1    19    1
    11     1    26    1
    12    26    27   ar
    13    27    28   ar
    14    28    29   ar
    15    29    30    1
    16    29    31   ar
    17     1     2    1
    18     2     3    1
    19     3    32    1
    20    32    33   ar
    21    33    34   ar
    22    34    38    1
    23    38    39   ar
    24    39    40   ar
    25    40    41   ar
    26    41    42    1
    27    41    43   ar
    28    43    44   ar
    29    34    35   ar
    30    35    36   ar
    31     3     4    1
    32     4     5    1
    33     5     6    2
    34     6     7    1
    35     7     8    2
    36     8     9    1
    37     9    10    1
    38    10    11    2
    39    11    12    1
    40    12    13    2
    41    19    20   ar
    42    20    15   ar
    43     6     1    1
    44    13     8    1
    45    31    26   ar
    46    36    32   ar
    47    13     5    1
    48    44    38   ar
    49     2    14    1
    50    36    37    1
@<TRIPOS>MOLECULE
*****
 44 50 0 0 0
SMALL
GASTEIGER

@<TRIPOS>ATOM
      1 C         141.6924  141.8521  160.3765 C.3     1  UNL1        0.1354
      2 N         141.3296  142.5490  159.0988 N.3     1  UNL1       -0.2823
      3 C         140.4342  143.7521  159.1288 C.3     1  UNL1        0.1166
      4 C         139.9016  144.2582  160.4365 C.3     1  UNL1        0.0511
      5 C         140.2644  143.5613  161.7143 C.2     1  UNL1       -0.0038
      6 C         141.1598  142.3582  161.6843 C.2     1  UNL1        0.0768
      7 N         141.3432  141.8817  163.0947 N.2     1  UNL1       -0.2520
      8 C         140.5612  142.7903  163.9964 C.2     1  UNL1        0.0627
      9 C         140.3702  142.8065  165.4840 C.3     1  UNL1        0.0717
     10 C         139.5123  143.8607  166.1185 C.2     1  UNL1       -0.0198
     11 C         138.8456  144.8988  165.2654 C.2     1  UNL1       -0.0042
     12 C         139.0367  144.8826  163.7777 C.2     1  UNL1        0.0006
     13 C         139.8945  143.8283  163.1432 C.2     1  UNL1        0.0111
     14 H         140.8728  141.8567  158.5052 H       1  UNL1        0.1245
     15 C         142.1177  138.7394  162.8016 C.ar    1  UNL1        0.0784
     16 C         143.5611  138.8750  163.1863 C.ar    1  UNL1        0.0271
     17 C         144.3817  140.0029  162.6345 C.ar    1  UNL1        0.0987
     18 N         143.7587  140.9953  161.6979 N.ar    1  UNL1       -0.2462
     19 C         142.3153  140.8597  161.3132 C.ar    1  UNL1        0.0812
     20 C         141.4948  139.7318  161.8649 C.ar    1  UNL1        0.0232
     21 C         141.2971  137.6115  163.3534 C.2     1  UNL1        0.3413
     22 O         141.6722  136.9813  164.6618 O.2     1  UNL1       -0.2449
     23 O         140.1013  137.1139  162.5966 O.3     1  UNL1       -0.4454
     24 C         137.9480  138.3970  161.9134 C.3     1  UNL1        0.0513
     25 C         138.7331  137.6278  162.9342 C.3     1  UNL1        0.2089
     26 C         142.4413  141.0013  159.3941 C.ar    1  UNL1        0.0407
     27 C         143.8260  141.2607  158.8789 C.ar    1  UNL1        0.1193
     28 N         144.1774  140.1613  157.9207 N.ar    1  UNL1       -0.1679
     29 N         143.0101  139.2226  157.8438 N.ar    1  UNL1       -0.2476
     30 C         142.9298  137.9825  157.0038 C.3     1  UNL1        0.1537
     31 C         141.9370  139.7417  158.7544 C.ar    1  UNL1        0.0944
     32 C         140.0714  144.4491  157.8510 C.ar    1  UNL1        0.1318
     33 N         140.0997  145.9302  157.6159 N.ar    1  UNL1       -0.2298
     34 C         139.6624  146.1838  156.2037 C.ar    1  UNL1        0.0996
     35 C         139.3639  144.8594  155.5660 C.ar    1  UNL1        0.0927
     36 N         139.6166  143.7872  156.5841 N.ar    1  UNL1       -0.3386
     37 H         139.5039  142.8191  156.4452 H       1  UNL1        0.1672
     38 C         139.5444  147.5263  155.5448 C.ar    1  UNL1        0.0193
     39 C         138.7620  148.6209  156.2078 C.ar    1  UNL1        0.0039
     40 C         138.6440  149.9633  155.5491 C.ar    1  UNL1        0.0297
     41 C         139.3083  150.2110  154.2272 C.ar    1  UNL1        0.1401
     42 F         139.1903  151.5535  153.5684 F       1  UNL1       -0.2042
     43 C         140.0907  149.1164  153.5642 C.ar    1  UNL1        0.0297
     44 C         140.2087  147.7740  154.2230 C.ar    1  UNL1        0.0039
@<TRIPOS>BOND
     1    24    25    1
     2    25    23    1
     3    23    21    1
     4    21    22    2
     5    21    15    1
     6    15    16   ar
     7    16    17   ar
     8    17    18   ar
     9    18    19   ar
    10     1    19    1
    11     1    26    1
    12    26    27   ar
    13    27    28   ar
    14    28    29   ar
    15    29    30    1
    16    29    31   ar
    17     1     2    1
    18     2     3    1
    19     3    32    1
    20    32    33   ar
    21    33    34   ar
    22    34    38    1
    23    38    39   ar
    24    39    40   ar
    25    40    41   ar
    26    41    42    1
    27    41    43   ar
    28    43    44   ar
    29    34    35   ar
    30    35    36   ar
    31     3     4    1
    32     4     5    1
    33     5     6    2
    34     6     7    1
    35     7     8    2
    36     8     9    1
    37     9    10    1
    38    10    11    2
    39    11    12    1
    40    12    13    2
    41    19    20   ar
    42    20    15   ar
    43     6     1    1
    44    13     8    1
    45    31    26   ar
    46    36    32   ar
    47    13     5    1
    48    44    38   ar
    49     2    14    1
    50    36    37    1
@<TRIPOS>MOLECULE
*****
 44 50 0 0 0
SMALL
GASTEIGER

@<TRIPOS>ATOM
      1 C         141.9814  142.2846  160.4039 C.3     1  UNL1        0.1354
      2 N         141.5420  142.9504  159.1336 N.3     1  UNL1       -0.2823
      3 C         140.4982  144.0269  159.1733 C.3     1  UNL1        0.1166
      4 C         139.8938  144.4376  160.4832 C.3     1  UNL1        0.0511
      5 C         140.3331  143.7719  161.7535 C.2     1  UNL1       -0.0038
      6 C         141.3769  142.6954  161.7139 C.2     1  UNL1        0.0768
      7 N         141.6088  142.2227  163.1184 N.2     1  UNL1       -0.2520
      8 C         140.7084  143.0071  164.0261 C.2     1  UNL1        0.0627
      9 C         140.5045  142.9732  165.5118 C.3     1  UNL1        0.0717
     10 C         139.5122  143.8967  166.1539 C.2     1  UNL1       -0.0198
     11 C         138.7238  144.8542  165.3103 C.2     1  UNL1       -0.0042
     12 C         138.9276  144.8881  163.8247 C.2     1  UNL1        0.0006
     13 C         139.9199  143.9645  163.1826 C.2     1  UNL1        0.0111
     14 H         141.1835  142.2150  158.5245 H       1  UNL1        0.1245
     15 C         142.7676  139.2427  162.8285 C.ar    1  UNL1        0.0784
     16 C         144.1965  139.5269  163.1856 C.ar    1  UNL1        0.0271
     17 C         144.8870  140.7303  162.6156 C.ar    1  UNL1        0.0987
     18 N         144.1486  141.6495  161.6883 N.ar    1  UNL1       -0.2462
     19 C         142.7197  141.3653  161.3312 C.ar    1  UNL1        0.0812
     20 C         142.0293  140.1620  161.9013 C.ar    1  UNL1        0.0232
     21 C         142.0771  138.0393  163.3986 C.2     1  UNL1        0.3413
     22 O         142.3485  137.6185  164.8125 O.2     1  UNL1       -0.2449
     23 O         141.1151  137.2567  162.5546 O.3     1  UNL1       -0.4454
     24 C         138.9014  137.7722  163.8132 C.3     1  UNL1        0.0513
     25 C         139.6631  137.6323  162.5285 C.3     1  UNL1        0.2089
     26 C         142.8422  141.5546  159.4160 C.ar    1  UNL1        0.0407
     27 C         142.7732  140.0900  159.0994 C.ar    1  UNL1        0.1193
     28 N         143.8116  139.7913  158.0590 N.ar    1  UNL1       -0.1679
     29 N         144.5224  141.0712  157.7325 N.ar    1  UNL1       -0.2476
     30 C         145.6366  141.2329  156.7415 C.3     1  UNL1        0.1537
     31 C         143.9233  142.1610  158.5713 C.ar    1  UNL1        0.0944
     32 C         140.0588  144.6927  157.9029 C.ar    1  UNL1        0.1318
     33 N         140.1484  146.1589  157.5994 N.ar    1  UNL1       -0.2298
     34 C         139.5976  146.3816  156.2220 C.ar    1  UNL1        0.0996
     35 C         139.1676  145.0530  155.6744 C.ar    1  UNL1        0.0927
     36 N         139.4527  144.0092  156.7132 N.ar    1  UNL1       -0.3386
     37 H         139.2734  143.0448  156.6290 H       1  UNL1        0.1672
     38 C         139.4949  147.7012  155.5163 C.ar    1  UNL1        0.0193
     39 C         138.7618  148.8408  156.1597 C.ar    1  UNL1        0.0039
     40 C         138.6590  150.1604  155.4540 C.ar    1  UNL1        0.0297
     41 C         139.2893  150.3404  154.1049 C.ar    1  UNL1        0.1401
     42 F         139.1866  151.6601  153.3991 F       1  UNL1       -0.2042
     43 C         140.0224  149.2009  153.4614 C.ar    1  UNL1        0.0297
     44 C         140.1252  147.8813  154.1671 C.ar    1  UNL1        0.0039
@<TRIPOS>BOND
     1    24    25    1
     2    25    23    1
     3    23    21    1
     4    21    22    2
     5    21    15    1
     6    15    16   ar
     7    16    17   ar
     8    17    18   ar
     9    18    19   ar
    10     1    19    1
    11     1    26    1
    12    26    27   ar
    13    27    28   ar
    14    28    29   ar
    15    29    30    1
    16    29    31   ar
    17     1     2    1
    18     2     3    1
    19     3    32    1
    20    32    33   ar
    21    33    34   ar
    22    34    38    1
    23    38    39   ar
    24    39    40   ar
    25    40    41   ar
    26    41    42    1
    27    41    43   ar
    28    43    44   ar
    29    34    35   ar
    30    35    36   ar
    31     3     4    1
    32     4     5    1
    33     5     6    2
    34     6     7    1
    35     7     8    2
    36     8     9    1
    37     9    10    1
    38    10    11    2
    39    11    12    1
    40    12    13    2
    41    19    20   ar
    42    20    15   ar
    43     6     1    1
    44    13     8    1
    45    31    26   ar
    46    36    32   ar
    47    13     5    1
    48    44    38   ar
    49     2    14    1
    50    36    37    1
@<TRIPOS>MOLECULE
*****
 44 50 0 0 0
SMALL
GASTEIGER

@<TRIPOS>ATOM
      1 C         142.4780  141.7675  160.8683 C.3     1  UNL1        0.1354
      2 N         142.6028  140.8772  159.6676 N.3     1  UNL1       -0.2823
      3 C         142.8236  139.4042  159.8457 C.3     1  UNL1        0.1166
      4 C         142.9196  138.8216  161.2247 C.3     1  UNL1        0.0511
      5 C         142.7949  139.7119  162.4254 C.2     1  UNL1       -0.0038
      6 C         142.5741  141.1848  162.2472 C.2     1  UNL1        0.0768
      7 N         142.4901  141.8089  163.6086 N.2     1  UNL1       -0.2520
      8 C         142.6590  140.7217  164.6282 C.2     1  UNL1        0.0627
      9 C         142.6656  140.7444  166.1280 C.3     1  UNL1        0.0717
     10 C         142.8606  139.4711  166.8965 C.2     1  UNL1       -0.0198
     11 C         143.0489  138.1751  166.1652 C.2     1  UNL1       -0.0042
     12 C         143.0423  138.1524  164.6654 C.2     1  UNL1        0.0006
     13 C         142.8473  139.4257  163.8969 C.2     1  UNL1        0.0111
     14 H         143.3888  141.2287  159.1207 H       1  UNL1        0.1245
     15 C         140.7488  144.6569  162.9686 C.ar    1  UNL1        0.0784
     16 C         141.9389  145.4949  163.3311 C.ar    1  UNL1        0.0271
     17 C         143.3087  145.0905  162.8727 C.ar    1  UNL1        0.0987
     18 N         143.4884  143.8480  162.0517 N.ar    1  UNL1       -0.2462
     19 C         142.2983  143.0100  161.6893 C.ar    1  UNL1        0.0812
     20 C         140.9286  143.4144  162.1476 C.ar    1  UNL1        0.0232
     21 C         139.3790  145.0613  163.4270 C.2     1  UNL1        0.3413
     22 O         138.3716  145.5577  162.4327 O.2     1  UNL1       -0.2449
     23 O         139.0167  144.9693  164.8797 O.3     1  UNL1       -0.4454
     24 C         139.2099  142.4102  165.2838 C.3     1  UNL1        0.0513
     25 C         139.5112  143.8181  165.7044 C.3     1  UNL1        0.2089
     26 C         142.3195  142.7816  159.7746 C.ar    1  UNL1        0.0407
     27 C         143.4167  143.3173  158.9031 C.ar    1  UNL1        0.1193
     28 N         142.8112  144.3049  157.9502 N.ar    1  UNL1       -0.1679
     29 N         141.3400  144.3796  158.2326 N.ar    1  UNL1       -0.2476
     30 C         140.3470  145.2439  157.5138 C.3     1  UNL1        0.1537
     31 C         141.0361  143.4381  159.3602 C.ar    1  UNL1        0.0944
     32 C         142.9483  138.5139  158.6450 C.ar    1  UNL1        0.1318
     33 N         142.5758  137.0623  158.5813 N.ar    1  UNL1       -0.2298
     34 C         142.8647  136.5701  157.1941 C.ar    1  UNL1        0.0996
     35 C         143.4158  137.7174  156.4005 C.ar    1  UNL1        0.0927
     36 N         143.4674  138.9188  157.2972 N.ar    1  UNL1       -0.3386
     37 H         143.7861  139.8156  157.0454 H       1  UNL1        0.1672
     38 C         142.6417  135.1752  156.6892 C.ar    1  UNL1        0.0193
     39 C         143.3626  134.0234  157.3244 C.ar    1  UNL1        0.0039
     40 C         143.1396  132.6287  156.8196 C.ar    1  UNL1        0.0297
     41 C         142.1957  132.3858  155.6795 C.ar    1  UNL1        0.1401
     42 F         141.9727  130.9910  155.1746 F       1  UNL1       -0.2042
     43 C         141.4747  133.5376  155.0442 C.ar    1  UNL1        0.0297
     44 C         141.6977  134.9323  155.5491 C.ar    1  UNL1        0.0039
@<TRIPOS>BOND
     1    24    25    1
     2    25    23    1
     3    23    21    1
     4    21    22    2
     5    21    15    1
     6    15    16   ar
     7    16    17   ar
     8    17    18   ar
     9    18    19   ar
    10     1    19    1
    11     1    26    1
    12    26    27   ar
    13    27    28   ar
    14    28    29   ar
    15    29    30    1
    16    29    31   ar
    17     1     2    1
    18     2     3    1
    19     3    32    1
    20    32    33   ar
    21    33    34   ar
    22    34    38    1
    23    38    39   ar
    24    39    40   ar
    25    40    41   ar
    26    41    42    1
    27    41    43   ar
    28    43    44   ar
    29    34    35   ar
    30    35    36   ar
    31     3     4    1
    32     4     5    1
    33     5     6    2
    34     6     7    1
    35     7     8    2
    36     8     9    1
    37     9    10    1
    38    10    11    2
    39    11    12    1
    40    12    13    2
    41    19    20   ar
    42    20    15   ar
    43     6     1    1
    44    13     8    1
    45    31    26   ar
    46    36    32   ar
    47    13     5    1
    48    44    38   ar
    49     2    14    1
    50    36    37    1
@<TRIPOS>MOLECULE
*****
 44 50 0 0 0
SMALL
GASTEIGER

@<TRIPOS>ATOM
      1 C         140.5641  140.6634  160.0635 C.3     1  UNL1        0.1354
      2 N         141.0660  139.8777  158.8884 N.3     1  UNL1       -0.2823
      3 C         142.1977  138.9088  159.0624 C.3     1  UNL1        0.1166
      4 C         142.8276  138.7255  160.4114 C.3     1  UNL1        0.0511
      5 C         142.3256  139.5112  161.5864 C.2     1  UNL1       -0.0038
      6 C         141.1939  140.4801  161.4125 C.2     1  UNL1        0.0768
      7 N         140.9144  141.1103  162.7447 N.2     1  UNL1       -0.2520
      8 C         141.8734  140.5308  163.7420 C.2     1  UNL1        0.0627
      9 C         142.0651  140.7754  165.2094 C.3     1  UNL1        0.0717
     10 C         143.1290  140.0317  165.9609 C.2     1  UNL1       -0.0198
     11 C         144.0012  139.0434  165.2451 C.2     1  UNL1       -0.0042
     12 C         143.8095  138.7988  163.7777 C.2     1  UNL1        0.0006
     13 C         142.7456  139.5425  163.0261 C.2     1  UNL1        0.0111
     14 H         141.3638  140.5554  158.1867 H       1  UNL1        0.1245
     15 C         139.3764  144.0174  161.8214 C.ar    1  UNL1        0.0784
     16 C         138.1055  143.5606  162.4741 C.ar    1  UNL1        0.0271
     17 C         137.6540  142.1382  162.3233 C.ar    1  UNL1        0.0987
     18 N         138.4736  141.1724  161.5197 N.ar    1  UNL1       -0.2462
     19 C         139.7445  141.6292  160.8670 C.ar    1  UNL1        0.0812
     20 C         140.1959  143.0516  161.0179 C.ar    1  UNL1        0.0232
     21 C         139.8279  145.4399  161.9723 C.2     1  UNL1        0.3413
     22 O         139.1817  146.5221  161.1592 O.2     1  UNL1       -0.2449
     23 O         140.9257  145.7801  162.9363 O.3     1  UNL1       -0.4454
     24 C         142.7795  144.1895  163.8213 C.3     1  UNL1        0.0513
     25 C         141.3956  144.7582  163.9287 C.3     1  UNL1        0.2089
     26 C         139.6496  141.1821  158.9936 C.ar    1  UNL1        0.0407
     27 C         139.8370  142.4481  158.2112 C.ar    1  UNL1        0.1193
     28 N         138.6903  142.5743  157.2523 N.ar    1  UNL1       -0.1679
     29 N         137.7944  141.3863  157.4420 N.ar    1  UNL1       -0.2476
     30 C         136.5280  141.1077  156.6881 C.3     1  UNL1        0.1537
     31 C         138.3873  140.5259  158.5183 C.ar    1  UNL1        0.0944
     32 C         142.6997  138.1231  157.8873 C.ar    1  UNL1        0.1318
     33 N         142.4912  136.6562  157.6536 N.ar    1  UNL1       -0.2298
     34 C         143.1610  136.2928  156.3616 C.ar    1  UNL1        0.0996
     35 C         143.7834  137.5352  155.7967 C.ar    1  UNL1        0.0927
     36 N         143.4983  138.6664  156.7396 N.ar    1  UNL1       -0.3386
     37 H         143.7850  139.6013  156.6254 H       1  UNL1        0.1672
     38 C         143.2012  134.9269  155.7430 C.ar    1  UNL1        0.0193
     39 C         143.9409  133.8154  156.4267 C.ar    1  UNL1        0.0039
     40 C         143.9812  132.4495  155.8082 C.ar    1  UNL1        0.0297
     41 C         143.2817  132.1950  154.5059 C.ar    1  UNL1        0.1401
     42 F         143.3219  130.8291  153.8873 F       1  UNL1       -0.2042
     43 C         142.5420  133.3065  153.8222 C.ar    1  UNL1        0.0297
     44 C         142.5017  134.6724  154.4407 C.ar    1  UNL1        0.0039
@<TRIPOS>BOND
     1    24    25    1
     2    25    23    1
     3    23    21    1
     4    21    22    2
     5    21    15    1
     6    15    16   ar
     7    16    17   ar
     8    17    18   ar
     9    18    19   ar
    10     1    19    1
    11     1    26    1
    12    26    27   ar
    13    27    28   ar
    14    28    29   ar
    15    29    30    1
    16    29    31   ar
    17     1     2    1
    18     2     3    1
    19     3    32    1
    20    32    33   ar
    21    33    34   ar
    22    34    38    1
    23    38    39   ar
    24    39    40   ar
    25    40    41   ar
    26    41    42    1
    27    41    43   ar
    28    43    44   ar
    29    34    35   ar
    30    35    36   ar
    31     3     4    1
    32     4     5    1
    33     5     6    2
    34     6     7    1
    35     7     8    2
    36     8     9    1
    37     9    10    1
    38    10    11    2
    39    11    12    1
    40    12    13    2
    41    19    20   ar
    42    20    15   ar
    43     6     1    1
    44    13     8    1
    45    31    26   ar
    46    36    32   ar
    47    13     5    1
    48    44    38   ar
    49     2    14    1
    50    36    37    1
@<TRIPOS>MOLECULE
*****
 44 50 0 0 0
SMALL
GASTEIGER

@<TRIPOS>ATOM
      1 C         140.3749  141.7542  160.5394 C.3     1  UNL1        0.1354
      2 N         140.3233  140.9898  159.2498 N.3     1  UNL1       -0.2823
      3 C         139.9273  139.5430  159.2509 C.3     1  UNL1        0.1166
      4 C         139.5828  138.8606  160.5415 C.3     1  UNL1        0.0511
      5 C         139.6343  139.6251  161.8311 C.2     1  UNL1       -0.0038
      6 C         140.0304  141.0718  161.8300 C.2     1  UNL1        0.0768
      7 N         139.9919  141.5639  163.2464 N.2     1  UNL1       -0.2520
      8 C         139.5720  140.4213  164.1229 C.2     1  UNL1        0.0627
      9 C         139.3624  140.3173  165.6045 C.3     1  UNL1        0.0717
     10 C         138.9319  139.0149  166.2114 C.2     1  UNL1       -0.0198
     11 C         138.7109  137.8165  165.3366 C.2     1  UNL1       -0.0042
     12 C         138.9205  137.9206  163.8550 C.2     1  UNL1        0.0006
     13 C         139.3511  139.2230  163.2482 C.2     1  UNL1        0.0111
     14 H         141.2563  141.0393  158.8406 H       1  UNL1        0.1245
     15 C         142.1275  144.3208  163.0073 C.ar    1  UNL1        0.0784
     16 C         140.9586  145.1703  163.4097 C.ar    1  UNL1        0.0271
     17 C         139.5951  144.8812  162.8553 C.ar    1  UNL1        0.0987
     18 N         139.4006  143.7424  161.8985 N.ar    1  UNL1       -0.2462
     19 C         140.5695  142.8929  161.4962 C.ar    1  UNL1        0.0812
     20 C         141.9329  143.1821  162.0505 C.ar    1  UNL1        0.0232
     21 C         143.4910  144.6100  163.5616 C.2     1  UNL1        0.3413
     22 O         144.4514  145.4611  162.7850 O.2     1  UNL1       -0.2449
     23 O         143.8941  144.0479  164.8927 O.3     1  UNL1       -0.4454
     24 C         143.0223  141.6827  165.5218 C.3     1  UNL1        0.0513
     25 C         144.1300  142.5743  165.0441 C.3     1  UNL1        0.2089
     26 C         140.7870  142.8320  159.5810 C.ar    1  UNL1        0.0407
     27 C         142.1626  143.0320  159.0175 C.ar    1  UNL1        0.1193
     28 N         142.1216  144.2227  158.1061 N.ar    1  UNL1       -0.1679
     29 N         140.7206  144.7586  158.1064 N.ar    1  UNL1       -0.2476
     30 C         140.2305  145.9456  157.3313 C.3     1  UNL1        0.1537
     31 C         139.8957  143.8991  159.0180 C.ar    1  UNL1        0.0944
     32 C         139.8757  138.7785  157.9613 C.ar    1  UNL1        0.1318
     33 N         140.7779  137.6453  157.5715 N.ar    1  UNL1       -0.2298
     34 C         140.3727  137.1794  156.2045 C.ar    1  UNL1        0.0996
     35 C         139.2202  138.0248  155.7494 C.ar    1  UNL1        0.0927
     36 N         138.9131  139.0130  156.8352 N.ar    1  UNL1       -0.3386
     37 H         138.2041  139.6958  156.8126 H       1  UNL1        0.1672
     38 C         141.0085  136.0640  155.4287 C.ar    1  UNL1        0.0193
     39 C         142.0145  135.1691  156.0898 C.ar    1  UNL1        0.0039
     40 C         142.6503  134.0537  155.3141 C.ar    1  UNL1        0.0297
     41 C         142.2801  133.8333  153.8773 C.ar    1  UNL1        0.1401
     42 F         142.9159  132.7179  153.1016 F       1  UNL1       -0.2042
     43 C         141.2741  134.7283  153.2163 C.ar    1  UNL1        0.0297
     44 C         140.6383  135.8436  153.9919 C.ar    1  UNL1        0.0039
@<TRIPOS>BOND
     1    24    25    1
     2    25    23    1
     3    23    21    1
     4    21    22    2
     5    21    15    1
     6    15    16   ar
     7    16    17   ar
     8    17    18   ar
     9    18    19   ar
    10     1    19    1
    11     1    26    1
    12    26    27   ar
    13    27    28   ar
    14    28    29   ar
    15    29    30    1
    16    29    31   ar
    17     1     2    1
    18     2     3    1
    19     3    32    1
    20    32    33   ar
    21    33    34   ar
    22    34    38    1
    23    38    39   ar
    24    39    40   ar
    25    40    41   ar
    26    41    42    1
    27    41    43   ar
    28    43    44   ar
    29    34    35   ar
    30    35    36   ar
    31     3     4    1
    32     4     5    1
    33     5     6    2
    34     6     7    1
    35     7     8    2
    36     8     9    1
    37     9    10    1
    38    10    11    2
    39    11    12    1
    40    12    13    2
    41    19    20   ar
    42    20    15   ar
    43     6     1    1
    44    13     8    1
    45    31    26   ar
    46    36    32   ar
    47    13     5    1
    48    44    38   ar
    49     2    14    1
    50    36    37    1
@<TRIPOS>MOLECULE
*****
 44 50 0 0 0
SMALL
GASTEIGER

@<TRIPOS>ATOM
      1 C         141.3263  141.2875  159.6704 C.3     1  UNL1        0.1354
      2 N         140.7016  142.1504  158.6144 N.3     1  UNL1       -0.2823
      3 C         140.7340  143.6439  158.7504 C.3     1  UNL1        0.1166
      4 C         141.3910  144.2744  159.9423 C.3     1  UNL1        0.0511
      5 C         142.0156  143.4115  160.9983 C.2     1  UNL1       -0.0038
      6 C         141.9833  141.9181  160.8623 C.2     1  UNL1        0.0768
      7 N         142.6771  141.3290  162.0547 N.2     1  UNL1       -0.2520
      8 C         143.1382  142.4583  162.9275 C.2     1  UNL1        0.0627
      9 C         143.8775  142.4810  164.2325 C.3     1  UNL1        0.0717
     10 C         144.2080  143.7908  164.8845 C.2     1  UNL1       -0.0198
     11 C         143.7992  145.0779  164.2316 C.2     1  UNL1       -0.0042
     12 C         143.0599  145.0552  162.9267 C.2     1  UNL1        0.0006
     13 C         142.7294  143.7455  162.2747 C.2     1  UNL1        0.0111
     14 H         139.7194  141.8812  158.5571 H       1  UNL1        0.1245
     15 C         141.3754  138.2460  162.2194 C.ar    1  UNL1        0.0784
     16 C         142.6791  137.5967  161.8607 C.ar    1  UNL1        0.0271
     17 C         143.5319  138.1776  160.7719 C.ar    1  UNL1        0.0987
     18 N         143.0809  139.4079  160.0418 N.ar    1  UNL1       -0.2462
     19 C         141.7772  140.0572  160.4005 C.ar    1  UNL1        0.0812
     20 C         140.9245  139.4763  161.4892 C.ar    1  UNL1        0.0232
     21 C         140.5226  137.6652  163.3081 C.2     1  UNL1        0.3413
     22 O         141.1135  136.6929  164.2856 O.2     1  UNL1       -0.2449
     23 O         139.0788  138.0567  163.4193 O.3     1  UNL1       -0.4454
     24 C         138.0941  140.3544  164.1270 C.3     1  UNL1        0.0513
     25 C         138.6399  139.0063  164.4943 C.3     1  UNL1        0.2089
     26 C         140.8259  140.2297  158.7320 C.ar    1  UNL1        0.0407
     27 C         139.5210  139.4981  158.8431 C.ar    1  UNL1        0.1193
     28 N         139.4312  138.5340  157.6975 N.ar    1  UNL1       -0.1679
     29 N         140.6804  138.6696  156.8784 N.ar    1  UNL1       -0.2476
     30 C         141.0099  137.8936  155.6378 C.3     1  UNL1        0.1537
     31 C         141.5424  139.7177  157.5177 C.ar    1  UNL1        0.0944
     32 C         140.1093  144.5069  157.6943 C.ar    1  UNL1        0.1318
     33 N         140.1706  146.0042  157.6294 N.ar    1  UNL1       -0.2298
     34 C         139.4128  146.4468  156.4129 C.ar    1  UNL1        0.0996
     35 C         138.8832  145.2230  155.7260 C.ar    1  UNL1        0.0927
     36 N         139.3136  144.0241  156.5180 N.ar    1  UNL1       -0.3386
     37 H         139.1098  143.0851  156.3034 H       1  UNL1        0.1672
     38 C         139.2188  147.8644  155.9623 C.ar    1  UNL1        0.0193
     39 C         139.7252  148.3005  154.6194 C.ar    1  UNL1        0.0039
     40 C         139.5312  149.7180  154.1689 C.ar    1  UNL1        0.0297
     41 C         138.8308  150.6993  155.0612 C.ar    1  UNL1        0.1401
     42 F         138.6367  152.1169  154.6107 F       1  UNL1       -0.2042
     43 C         138.3244  150.2632  156.4041 C.ar    1  UNL1        0.0297
     44 C         138.5184  148.8457  156.8547 C.ar    1  UNL1        0.0039
@<TRIPOS>BOND
     1    24    25    1
     2    25    23    1
     3    23    21    1
     4    21    22    2
     5    21    15    1
     6    15    16   ar
     7    16    17   ar
     8    17    18   ar
     9    18    19   ar
    10     1    19    1
    11     1    26    1
    12    26    27   ar
    13    27    28   ar
    14    28    29   ar
    15    29    30    1
    16    29    31   ar
    17     1     2    1
    18     2     3    1
    19     3    32    1
    20    32    33   ar
    21    33    34   ar
    22    34    38    1
    23    38    39   ar
    24    39    40   ar
    25    40    41   ar
    26    41    42    1
    27    41    43   ar
    28    43    44   ar
    29    34    35   ar
    30    35    36   ar
    31     3     4    1
    32     4     5    1
    33     5     6    2
    34     6     7    1
    35     7     8    2
    36     8     9    1
    37     9    10    1
    38    10    11    2
    39    11    12    1
    40    12    13    2
    41    19    20   ar
    42    20    15   ar
    43     6     1    1
    44    13     8    1
    45    31    26   ar
    46    36    32   ar
    47    13     5    1
    48    44    38   ar
    49     2    14    1
    50    36    37    1
@<TRIPOS>MOLECULE
*****
 44 50 0 0 0
SMALL
GASTEIGER

@<TRIPOS>ATOM
      1 C         140.9741  140.9050  160.1106 C.3     1  UNL1        0.1354
      2 N         141.8181  140.8847  158.8708 N.3     1  UNL1       -0.2823
      3 C         143.2558  140.4640  158.9491 C.3     1  UNL1        0.1166
      4 C         143.8494  140.0635  160.2671 C.3     1  UNL1        0.0511
      5 C         143.0054  140.0838  161.5070 C.2     1  UNL1       -0.0038
      6 C         141.5677  140.5046  161.4287 C.2     1  UNL1        0.0768
      7 N         140.9860  140.4259  162.8090 N.2     1  UNL1       -0.2520
      8 C         142.0640  139.9565  163.7404 C.2     1  UNL1        0.0627
      9 C         142.0705  139.6942  165.2172 C.3     1  UNL1        0.0717
     10 C         143.3250  139.2206  165.8893 C.2     1  UNL1       -0.0198
     11 C         144.5731  139.0092  165.0846 C.2     1  UNL1       -0.0042
     12 C         144.5667  139.2714  163.6077 C.2     1  UNL1        0.0006
     13 C         143.3121  139.7451  162.9356 C.2     1  UNL1        0.0111
     14 H         141.8087  141.8320  158.4926 H       1  UNL1        0.1245
     15 C         138.3044  142.6065  162.5039 C.ar    1  UNL1        0.0784
     16 C         137.3914  141.4485  162.7787 C.ar    1  UNL1        0.0271
     17 C         137.6726  140.1094  162.1642 C.ar    1  UNL1        0.0987
     18 N         138.8669  139.9283  161.2748 N.ar    1  UNL1       -0.2462
     19 C         139.7798  141.0863  161.0000 C.ar    1  UNL1        0.0812
     20 C         139.4986  142.4253  161.6145 C.ar    1  UNL1        0.0232
     21 C         138.0232  143.9457  163.1184 C.2     1  UNL1        0.3413
     22 O         137.6170  144.0393  164.5593 O.2     1  UNL1       -0.2449
     23 O         138.1482  145.1912  162.2919 O.3     1  UNL1       -0.4454
     24 C         140.2069  145.8307  160.8418 C.3     1  UNL1        0.0513
     25 C         139.4793  145.8686  162.1530 C.3     1  UNL1        0.2089
     26 C         139.9657  141.3684  159.1015 C.ar    1  UNL1        0.0407
     27 C         139.8004  142.7728  158.6011 C.ar    1  UNL1        0.1193
     28 N         138.6781  142.7810  157.6058 N.ar    1  UNL1       -0.1679
     29 N         138.1498  141.3819  157.4911 N.ar    1  UNL1       -0.2476
     30 C         137.0236  140.9343  156.6073 C.3     1  UNL1        0.1537
     31 C         138.9457  140.5088  158.4155 C.ar    1  UNL1        0.0944
     32 C         144.0999  140.4437  157.7092 C.ar    1  UNL1        0.1318
     33 N         145.0636  141.5104  157.2812 N.ar    1  UNL1       -0.2298
     34 C         145.6878  141.0791  155.9872 C.ar    1  UNL1        0.0996
     35 C         145.1098  139.7458  155.6155 C.ar    1  UNL1        0.0927
     36 N         144.1284  139.3531  156.6798 N.ar    1  UNL1       -0.3386
     37 H         143.5964  138.5249  156.6992 H       1  UNL1        0.1672
     38 C         146.7105  141.8465  155.2027 C.ar    1  UNL1        0.0193
     39 C         146.2804  142.9710  154.3080 C.ar    1  UNL1        0.0039
     40 C         147.3029  143.7383  153.5235 C.ar    1  UNL1        0.0297
     41 C         148.7556  143.3811  153.6337 C.ar    1  UNL1        0.1401
     42 F         149.7783  144.1485  152.8491 F       1  UNL1       -0.2042
     43 C         149.1857  142.2566  154.5284 C.ar    1  UNL1        0.0297
     44 C         148.1631  141.4893  155.3129 C.ar    1  UNL1        0.0039
@<TRIPOS>BOND
     1    24    25    1
     2    25    23    1
     3    23    21    1
     4    21    22    2
     5    21    15    1
     6    15    16   ar
     7    16    17   ar
     8    17    18   ar
     9    18    19   ar
    10     1    19    1
    11     1    26    1
    12    26    27   ar
    13    27    28   ar
    14    28    29   ar
    15    29    30    1
    16    29    31   ar
    17     1     2    1
    18     2     3    1
    19     3    32    1
    20    32    33   ar
    21    33    34   ar
    22    34    38    1
    23    38    39   ar
    24    39    40   ar
    25    40    41   ar
    26    41    42    1
    27    41    43   ar
    28    43    44   ar
    29    34    35   ar
    30    35    36   ar
    31     3     4    1
    32     4     5    1
    33     5     6    2
    34     6     7    1
    35     7     8    2
    36     8     9    1
    37     9    10    1
    38    10    11    2
    39    11    12    1
    40    12    13    2
    41    19    20   ar
    42    20    15   ar
    43     6     1    1
    44    13     8    1
    45    31    26   ar
    46    36    32   ar
    47    13     5    1
    48    44    38   ar
    49     2    14    1
    50    36    37    1
@<TRIPOS>MOLECULE
*****
 44 50 0 0 0
SMALL
GASTEIGER

@<TRIPOS>ATOM
      1 C         140.9779  140.6257  159.2538 C.3     1  UNL1        0.1354
      2 N         141.1023  139.5037  158.2661 N.3     1  UNL1       -0.2823
      3 C         142.0502  138.3720  158.5322 C.3     1  UNL1        0.1166
      4 C         142.8736  138.3623  159.7859 C.3     1  UNL1        0.0511
      5 C         142.7492  139.4843  160.7736 C.2     1  UNL1       -0.0038
      6 C         141.8014  140.6160  160.5076 C.2     1  UNL1        0.0768
      7 N         141.8924  141.5765  161.6561 N.2     1  UNL1       -0.2520
      8 C         142.8964  141.0384  162.6320 C.2     1  UNL1        0.0627
      9 C         143.3969  141.5589  163.9467 C.3     1  UNL1        0.0717
     10 C         144.4269  140.7862  164.7161 C.2     1  UNL1       -0.0198
     11 C         144.9565  139.4931  164.1707 C.2     1  UNL1       -0.0042
     12 C         144.4561  138.9727  162.8559 C.2     1  UNL1        0.0006
     13 C         143.4260  139.7454  162.0866 C.2     1  UNL1        0.0111
     14 H         141.3844  139.9217  157.3795 H       1  UNL1        0.1245
     15 C         138.9495  143.1622  161.5346 C.ar    1  UNL1        0.0784
     16 C         139.5782  144.4650  161.1379 C.ar    1  UNL1        0.0271
     17 C         140.6734  144.4882  160.1132 C.ar    1  UNL1        0.0987
     18 N         141.1400  143.2083  159.4852 N.ar    1  UNL1       -0.2462
     19 C         140.5113  141.9055  159.8819 C.ar    1  UNL1        0.0812
     20 C         139.4162  141.8824  160.9065 C.ar    1  UNL1        0.0232
     21 C         137.8543  143.1391  162.5593 C.2     1  UNL1        0.3413
     22 O         137.0345  141.8980  162.7530 O.2     1  UNL1       -0.2449
     23 O         137.5790  144.3572  163.3904 O.3     1  UNL1       -0.4454
     24 C         139.4190  143.7983  165.1373 C.3     1  UNL1        0.0513
     25 C         138.1116  144.4463  164.7898 C.3     1  UNL1        0.2089
     26 C         139.9924  141.0798  158.2182 C.ar    1  UNL1        0.0407
     27 C         140.2783  142.0110  157.0775 C.ar    1  UNL1        0.1193
     28 N         139.0104  142.1892  156.2958 N.ar    1  UNL1       -0.1679
     29 N         137.9411  141.3682  156.9534 N.ar    1  UNL1       -0.2476
     30 C         136.5153  141.2531  156.5022 C.3     1  UNL1        0.1537
     31 C         138.5480  140.6826  158.1416 C.ar    1  UNL1        0.0944
     32 C         142.1746  137.2498  157.5445 C.ar    1  UNL1        0.1318
     33 N         142.9664  135.9904  157.7362 N.ar    1  UNL1       -0.2298
     34 C         142.8102  135.1524  156.5019 C.ar    1  UNL1        0.0996
     35 C         141.9219  135.8939  155.5475 C.ar    1  UNL1        0.0927
     36 N         141.5291  137.1903  156.1918 N.ar    1  UNL1       -0.3386
     37 H         140.9494  137.8807  155.7964 H       1  UNL1        0.1672
     38 C         143.4330  133.8086  156.2639 C.ar    1  UNL1        0.0193
     39 C         144.4084  133.2478  157.2560 C.ar    1  UNL1        0.0039
     40 C         145.0312  131.9041  157.0180 C.ar    1  UNL1        0.0297
     41 C         144.6787  131.1213  155.7881 C.ar    1  UNL1        0.1401
     42 F         145.3015  129.7776  155.5501 F       1  UNL1       -0.2042
     43 C         143.7033  131.6822  154.7960 C.ar    1  UNL1        0.0297
     44 C         143.0805  133.0258  155.0339 C.ar    1  UNL1        0.0039
@<TRIPOS>BOND
     1    24    25    1
     2    25    23    1
     3    23    21    1
     4    21    22    2
     5    21    15    1
     6    15    16   ar
     7    16    17   ar
     8    17    18   ar
     9    18    19   ar
    10     1    19    1
    11     1    26    1
    12    26    27   ar
    13    27    28   ar
    14    28    29   ar
    15    29    30    1
    16    29    31   ar
    17     1     2    1
    18     2     3    1
    19     3    32    1
    20    32    33   ar
    21    33    34   ar
    22    34    38    1
    23    38    39   ar
    24    39    40   ar
    25    40    41   ar
    26    41    42    1
    27    41    43   ar
    28    43    44   ar
    29    34    35   ar
    30    35    36   ar
    31     3     4    1
    32     4     5    1
    33     5     6    2
    34     6     7    1
    35     7     8    2
    36     8     9    1
    37     9    10    1
    38    10    11    2
    39    11    12    1
    40    12    13    2
    41    19    20   ar
    42    20    15   ar
    43     6     1    1
    44    13     8    1
    45    31    26   ar
    46    36    32   ar
    47    13     5    1
    48    44    38   ar
    49     2    14    1
    50    36    37    1
