@<TRIPOS>MOLECULE
*****
 30 34 0 0 0
SMALL
GASTEIGER

@<TRIPOS>ATOM
      1 C         137.4020  142.5135  156.4040 C.3     1  UNL1        0.0181
      2 C         137.8558  142.3828  157.8278 C.3     1  UNL1        0.0036
      3 C         138.5252  142.4641  159.1677 C.3     1  UNL1        0.0227
      4 C         139.6505  143.4505  159.0647 C.3     1  UNL1        0.0870
      5 C         139.6767  143.9789  157.6611 C.3     1  UNL1        0.0227
      6 C         138.5676  143.3190  156.8967 C.3     1  UNL1        0.0036
      7 N         140.5855  143.8402  160.1711 N.ar    1  UNL1       -0.3109
      8 C         142.0666  144.0407  160.0441 C.ar    1  UNL1        0.1785
      9 N         142.5999  144.4222  161.3932 N.ar    1  UNL1       -0.2239
     10 C         141.4484  144.4576  162.3539 C.ar    1  UNL1        0.0989
     11 C         141.3728  144.7708  163.8188 C.ar    1  UNL1        0.0229
     12 C         140.0521  144.7244  164.5284 C.ar    1  UNL1        0.0313
     13 C         138.8071  144.3647  163.7731 C.ar    1  UNL1        0.1417
     14 F         137.4863  144.3183  164.4828 F       1  UNL1       -0.2041
     15 C         138.8827  144.0514  162.3081 C.ar    1  UNL1        0.0484
     16 C         140.2034  144.0979  161.5985 C.ar    1  UNL1        0.0811
     17 C         136.4671  142.1238  155.2977 C.3     1  UNL1        0.0718
     18 N         135.0272  141.8321  155.6004 N.am    1  UNL1       -0.3025
     19 C         134.5487  140.4123  155.6726 C.2     1  UNL1        0.2458
     20 O         135.5101  139.2842  155.4421 O.2     1  UNL1       -0.2701
     21 H         134.3962  142.5725  155.7517 H       1  UNL1        0.1497
     22 C         133.1087  140.1206  155.9753 C.ar    1  UNL1        0.0534
     23 C         132.7239  138.8130  156.6012 C.ar    1  UNL1        0.0054
     24 C         131.2841  138.5212  156.9039 C.ar    1  UNL1        0.0115
     25 C         130.2290  139.5373  156.5806 C.ar    1  UNL1        0.0577
     26 CL        128.7891  139.2455  156.8833 Cl      1  UNL1       -0.0822
     27 C         130.6138  140.8450  155.9547 C.ar    1  UNL1        0.0115
     28 C         132.0536  141.1367  155.6520 C.ar    1  UNL1        0.0054
     29 C         137.8567  143.1018  153.3324 C.3     1  UNL1        0.0017
     30 C         136.9720  142.0259  153.8886 C.3     1  UNL1        0.0196
@<TRIPOS>BOND
     1    29    30    1
     2    30    17    1
     3    17    18    1
     4    18    19   am
     5    19    20    2
     6    19    22    1
     7    22    23   ar
     8    23    24   ar
     9    24    25   ar
    10    25    26    1
    11    25    27   ar
    12    27    28   ar
    13     1    17    1
    14     1     2    1
    15     2     3    1
    16     3     4    1
    17     4     7    1
    18     7     8   ar
    19     8     9   ar
    20     9    10   ar
    21    10    11   ar
    22    11    12   ar
    23    12    13   ar
    24    13    14    1
    25    13    15   ar
    26    15    16   ar
    27     4     5    1
    28     6     5    1
    29    28    22   ar
    30     6     1    1
    31     6     2    1
    32    16     7   ar
    33    16    10   ar
    34    18    21    1
@<TRIPOS>MOLECULE
*****
 30 34 0 0 0
SMALL
GASTEIGER

@<TRIPOS>ATOM
      1 C         143.5702  139.7337  161.6897 C.3     1  UNL1        0.0181
      2 C         143.2683  138.4106  161.0507 C.3     1  UNL1        0.0036
      3 C         142.9416  137.2572  160.1490 C.3     1  UNL1        0.0227
      4 C         142.7595  137.7921  158.7595 C.3     1  UNL1        0.0870
      5 C         142.9737  139.2761  158.8023 C.3     1  UNL1        0.0227
      6 C         143.2882  139.6583  160.2183 C.3     1  UNL1        0.0036
      7 N         142.4225  136.9847  157.5411 N.ar    1  UNL1       -0.3109
      8 C         141.5767  137.4391  156.3885 C.ar    1  UNL1        0.1785
      9 N         141.5036  136.3165  155.3964 N.ar    1  UNL1       -0.2239
     10 C         142.3040  135.1683  155.9358 C.ar    1  UNL1        0.0989
     11 C         142.5891  133.8000  155.3912 C.ar    1  UNL1        0.0229
     12 C         143.4422  132.8448  156.1721 C.ar    1  UNL1        0.0313
     13 C         144.0101  133.2579  157.4976 C.ar    1  UNL1        0.1417
     14 F         144.8632  132.3026  158.2785 F       1  UNL1       -0.2041
     15 C         143.7250  134.6261  158.0422 C.ar    1  UNL1        0.0484
     16 C         142.8719  135.5813  157.2613 C.ar    1  UNL1        0.0811
     17 C         143.9072  140.5410  162.9081 C.3     1  UNL1        0.0718
     18 N         142.9141  140.6627  164.0256 N.am    1  UNL1       -0.3025
     19 C         143.0236  139.7709  165.2267 C.2     1  UNL1        0.2458
     20 O         144.1263  138.7575  165.3104 O.2     1  UNL1       -0.2701
     21 H         142.1903  141.3278  163.9707 H       1  UNL1        0.1497
     22 C         142.0304  139.8926  166.3443 C.ar    1  UNL1        0.0534
     23 C         142.4869  139.7819  167.7687 C.ar    1  UNL1        0.0054
     24 C         141.4938  139.9036  168.8862 C.ar    1  UNL1        0.0115
     25 C         140.0440  140.1359  168.5792 C.ar    1  UNL1        0.0577
     26 CL        139.0509  140.2576  169.6967 Cl      1  UNL1       -0.0822
     27 C         139.5875  140.2466  167.1547 C.ar    1  UNL1        0.0115
     28 C         140.5806  140.1249  166.0372 C.ar    1  UNL1        0.0054
     29 C         145.4713  142.2570  164.0738 C.3     1  UNL1        0.0017
     30 C         145.2375  141.2268  163.0090 C.3     1  UNL1        0.0196
@<TRIPOS>BOND
     1    29    30    1
     2    30    17    1
     3    17    18    1
     4    18    19   am
     5    19    20    2
     6    19    22    1
     7    22    23   ar
     8    23    24   ar
     9    24    25   ar
    10    25    26    1
    11    25    27   ar
    12    27    28   ar
    13     1    17    1
    14     1     2    1
    15     2     3    1
    16     3     4    1
    17     4     7    1
    18     7     8   ar
    19     8     9   ar
    20     9    10   ar
    21    10    11   ar
    22    11    12   ar
    23    12    13   ar
    24    13    14    1
    25    13    15   ar
    26    15    16   ar
    27     4     5    1
    28     6     5    1
    29    28    22   ar
    30     6     1    1
    31     6     2    1
    32    16     7   ar
    33    16    10   ar
    34    18    21    1
@<TRIPOS>MOLECULE
*****
 30 34 0 0 0
SMALL
GASTEIGER

@<TRIPOS>ATOM
      1 C         140.2993  138.3065  157.9575 C.3     1  UNL1        0.0181
      2 C         139.4874  138.9213  159.0589 C.3     1  UNL1        0.0036
      3 C         138.9537  139.5713  160.3009 C.3     1  UNL1        0.0227
      4 C         140.1140  139.8683  161.2040 C.3     1  UNL1        0.0870
      5 C         141.3649  139.4019  160.5201 C.3     1  UNL1        0.0227
      6 C         140.9776  138.8166  159.1944 C.3     1  UNL1        0.0036
      7 N         140.0370  140.5178  162.5539 N.ar    1  UNL1       -0.3109
      8 C         140.4310  141.9285  162.8774 C.ar    1  UNL1        0.1785
      9 N         140.1900  142.1530  164.3407 N.ar    1  UNL1       -0.2239
     10 C         139.6470  140.8811  164.9217 C.ar    1  UNL1        0.0989
     11 C         139.2265  140.5127  166.3135 C.ar    1  UNL1        0.0229
     12 C         138.7114  139.1336  166.6011 C.ar    1  UNL1        0.0313
     13 C         138.6169  138.1229  165.4967 C.ar    1  UNL1        0.1417
     14 F         138.1017  136.7437  165.7843 F       1  UNL1       -0.2041
     15 C         139.0374  138.4914  164.1048 C.ar    1  UNL1        0.0484
     16 C         139.5524  139.8705  163.8173 C.ar    1  UNL1        0.0811
     17 C         140.3763  137.6571  156.6077 C.3     1  UNL1        0.0718
     18 N         140.9740  136.2886  156.4667 N.am    1  UNL1       -0.3025
     19 C         142.4579  136.1027  156.5827 C.2     1  UNL1        0.2458
     20 O         143.3441  137.2853  156.8396 O.2     1  UNL1       -0.2701
     21 H         140.3924  135.5124  156.2981 H       1  UNL1        0.1497
     22 C         143.0556  134.7341  156.4418 C.ar    1  UNL1        0.0534
     23 C         143.7972  134.1176  157.5906 C.ar    1  UNL1        0.0054
     24 C         144.3949  132.7491  157.4497 C.ar    1  UNL1        0.0115
     25 C         144.2510  131.9971  156.1599 C.ar    1  UNL1        0.0577
     26 CL        144.8487  130.6285  156.0190 Cl      1  UNL1       -0.0822
     27 C         143.5094  132.6135  155.0110 C.ar    1  UNL1        0.0115
     28 C         142.9117  133.9820  155.1519 C.ar    1  UNL1        0.0054
     29 C         139.4190  137.5977  154.1931 C.3     1  UNL1        0.0017
     30 C         139.8556  138.3762  155.3985 C.3     1  UNL1        0.0196
@<TRIPOS>BOND
     1    29    30    1
     2    30    17    1
     3    17    18    1
     4    18    19   am
     5    19    20    2
     6    19    22    1
     7    22    23   ar
     8    23    24   ar
     9    24    25   ar
    10    25    26    1
    11    25    27   ar
    12    27    28   ar
    13     1    17    1
    14     1     2    1
    15     2     3    1
    16     3     4    1
    17     4     7    1
    18     7     8   ar
    19     8     9   ar
    20     9    10   ar
    21    10    11   ar
    22    11    12   ar
    23    12    13   ar
    24    13    14    1
    25    13    15   ar
    26    15    16   ar
    27     4     5    1
    28     6     5    1
    29    28    22   ar
    30     6     1    1
    31     6     2    1
    32    16     7   ar
    33    16    10   ar
    34    18    21    1
@<TRIPOS>MOLECULE
*****
 30 34 0 0 0
SMALL
GASTEIGER

@<TRIPOS>ATOM
      1 C         140.3475  145.0760  158.2587 C.3     1  UNL1        0.0181
      2 C         139.9755  144.1219  159.3549 C.3     1  UNL1        0.0036
      3 C         139.6601  143.4130  160.6386 C.3     1  UNL1        0.0227
      4 C         139.8524  144.3852  161.7645 C.3     1  UNL1        0.0870
      5 C         140.2868  145.6951  161.1767 C.3     1  UNL1        0.0227
      6 C         140.3629  145.5324  159.6875 C.3     1  UNL1        0.0036
      7 N         139.6466  144.0980  163.2223 N.ar    1  UNL1       -0.3109
      8 C         138.4145  144.4133  164.0177 C.ar    1  UNL1        0.1785
      9 N         138.6432  143.9552  165.4276 N.ar    1  UNL1       -0.2239
     10 C         140.0166  143.3569  165.5036 C.ar    1  UNL1        0.0989
     11 C         140.7826  142.7431  166.6378 C.ar    1  UNL1        0.0229
     12 C         142.1687  142.2175  166.4091 C.ar    1  UNL1        0.0313
     13 C         142.7889  142.3057  165.0461 C.ar    1  UNL1        0.1417
     14 F         144.1751  141.7801  164.8174 F       1  UNL1       -0.2041
     15 C         142.0229  142.9195  163.9119 C.ar    1  UNL1        0.0484
     16 C         140.6368  143.4451  164.1407 C.ar    1  UNL1        0.0811
     17 C         140.5533  145.3632  156.8010 C.3     1  UNL1        0.0718
     18 N         140.4895  146.7750  156.2984 N.am    1  UNL1       -0.3025
     19 C         139.2998  147.2376  155.5105 C.2     1  UNL1        0.2458
     20 O         138.1740  146.2884  155.2253 O.2     1  UNL1       -0.2701
     21 H         141.2284  147.3980  156.4856 H       1  UNL1        0.1497
     22 C         139.2360  148.6495  155.0079 C.ar    1  UNL1        0.0534
     23 C         139.8020  148.9928  153.6620 C.ar    1  UNL1        0.0054
     24 C         139.7382  150.4046  153.1594 C.ar    1  UNL1        0.0115
     25 C         139.1084  151.4732  154.0028 C.ar    1  UNL1        0.0577
     26 CL        139.0446  152.8850  153.5002 Cl      1  UNL1       -0.0822
     27 C         138.5423  151.1300  155.3488 C.ar    1  UNL1        0.0115
     28 C         138.6061  149.7181  155.8514 C.ar    1  UNL1        0.0054
     29 C         139.8751  143.0789  155.7656 C.3     1  UNL1        0.0017
     30 C         140.8230  144.2385  155.8457 C.3     1  UNL1        0.0196
@<TRIPOS>BOND
     1    29    30    1
     2    30    17    1
     3    17    18    1
     4    18    19   am
     5    19    20    2
     6    19    22    1
     7    22    23   ar
     8    23    24   ar
     9    24    25   ar
    10    25    26    1
    11    25    27   ar
    12    27    28   ar
    13     1    17    1
    14     1     2    1
    15     2     3    1
    16     3     4    1
    17     4     7    1
    18     7     8   ar
    19     8     9   ar
    20     9    10   ar
    21    10    11   ar
    22    11    12   ar
    23    12    13   ar
    24    13    14    1
    25    13    15   ar
    26    15    16   ar
    27     4     5    1
    28     6     5    1
    29    28    22   ar
    30     6     1    1
    31     6     2    1
    32    16     7   ar
    33    16    10   ar
    34    18    21    1
@<TRIPOS>MOLECULE
*****
 30 34 0 0 0
SMALL
GASTEIGER

@<TRIPOS>ATOM
      1 C         142.2071  137.5668  157.3496 C.3     1  UNL1        0.0181
      2 C         141.5495  136.6404  156.3700 C.3     1  UNL1        0.0036
      3 C         141.1797  135.5922  155.3628 C.3     1  UNL1        0.0227
      4 C         142.4180  134.8159  155.0255 C.3     1  UNL1        0.0870
      5 C         143.5533  135.3843  155.8243 C.3     1  UNL1        0.0227
      6 C         143.0166  136.5119  156.6552 C.3     1  UNL1        0.0036
      7 N         142.5058  133.6721  154.0592 N.ar    1  UNL1       -0.3109
      8 C         141.9204  133.6374  152.6785 C.ar    1  UNL1        0.1785
      9 N         142.2472  132.3059  152.0699 N.ar    1  UNL1       -0.2239
     10 C         143.0345  131.5177  153.0744 C.ar    1  UNL1        0.0989
     11 C         143.6265  130.1403  153.0283 C.ar    1  UNL1        0.0229
     12 C         144.3783  129.6072  154.2117 C.ar    1  UNL1        0.0313
     13 C         144.5381  130.4515  155.4412 C.ar    1  UNL1        0.1417
     14 F         145.2900  129.9184  156.6247 F       1  UNL1       -0.2041
     15 C         143.9461  131.8290  155.4872 C.ar    1  UNL1        0.0484
     16 C         143.1943  132.3621  154.3038 C.ar    1  UNL1        0.0811
     17 C         142.1194  138.7106  158.3159 C.3     1  UNL1        0.0718
     18 N         141.2785  138.5856  159.5518 N.am    1  UNL1       -0.3025
     19 C         141.8595  137.9826  160.7963 C.2     1  UNL1        0.2458
     20 O         143.2813  137.5047  160.8051 O.2     1  UNL1       -0.2701
     21 H         140.3454  138.8993  159.5461 H       1  UNL1        0.1497
     22 C         141.0186  137.8576  162.0323 C.ar    1  UNL1        0.0534
     23 C         139.5310  138.0297  161.9478 C.ar    1  UNL1        0.0054
     24 C         138.6901  137.9047  163.1836 C.ar    1  UNL1        0.0115
     25 C         139.3369  137.6075  164.5039 C.ar    1  UNL1        0.0577
     26 CL        138.4961  137.4825  165.7398 Cl      1  UNL1       -0.0822
     27 C         140.8246  137.4354  164.5884 C.ar    1  UNL1        0.0115
     28 C         141.6655  137.5604  163.3526 C.ar    1  UNL1        0.0054
     29 C         143.9367  140.4369  158.9994 C.3     1  UNL1        0.0017
     30 C         142.8725  139.9796  158.0465 C.3     1  UNL1        0.0196
@<TRIPOS>BOND
     1    29    30    1
     2    30    17    1
     3    17    18    1
     4    18    19   am
     5    19    20    2
     6    19    22    1
     7    22    23   ar
     8    23    24   ar
     9    24    25   ar
    10    25    26    1
    11    25    27   ar
    12    27    28   ar
    13     1    17    1
    14     1     2    1
    15     2     3    1
    16     3     4    1
    17     4     7    1
    18     7     8   ar
    19     8     9   ar
    20     9    10   ar
    21    10    11   ar
    22    11    12   ar
    23    12    13   ar
    24    13    14    1
    25    13    15   ar
    26    15    16   ar
    27     4     5    1
    28     6     5    1
    29    28    22   ar
    30     6     1    1
    31     6     2    1
    32    16     7   ar
    33    16    10   ar
    34    18    21    1
@<TRIPOS>MOLECULE
*****
 30 34 0 0 0
SMALL
GASTEIGER

@<TRIPOS>ATOM
      1 C         141.1734  139.0036  158.5052 C.3     1  UNL1        0.0181
      2 C         140.7067  138.0251  157.4685 C.3     1  UNL1        0.0036
      3 C         140.5325  136.9352  156.4527 C.3     1  UNL1        0.0227
      4 C         141.8335  136.1979  156.3360 C.3     1  UNL1        0.0870
      5 C         142.8119  136.8321  157.2797 C.3     1  UNL1        0.0227
      6 C         142.1155  137.9613  157.9795 C.3     1  UNL1        0.0036
      7 N         142.1080  135.0312  155.4341 N.ar    1  UNL1       -0.3109
      8 C         141.6277  134.8766  154.0215 C.ar    1  UNL1        0.1785
      9 N         142.1338  133.5641  153.5008 N.ar    1  UNL1       -0.2239
     10 C         142.9270  132.9075  154.5916 C.ar    1  UNL1        0.0989
     11 C         143.6617  131.6012  154.6512 C.ar    1  UNL1        0.0229
     12 C         144.3804  131.2015  155.9057 C.ar    1  UNL1        0.0313
     13 C         144.3644  132.1082  157.1005 C.ar    1  UNL1        0.1417
     14 F         145.0831  131.7084  158.3550 F       1  UNL1       -0.2041
     15 C         143.6297  133.4145  157.0409 C.ar    1  UNL1        0.0484
     16 C         142.9110  133.8142  155.7865 C.ar    1  UNL1        0.0811
     17 C         140.8990  140.1703  159.4071 C.3     1  UNL1        0.0718
     18 N         140.5979  139.9416  160.8586 N.am    1  UNL1       -0.3025
     19 C         139.2061  139.5838  161.2886 C.2     1  UNL1        0.2458
     20 O         138.1153  139.4548  160.2670 O.2     1  UNL1       -0.2701
     21 H         141.3138  140.0262  161.5291 H       1  UNL1        0.1497
     22 C         138.9050  139.3551  162.7402 C.ar    1  UNL1        0.0534
     23 C         138.3715  140.4766  163.5813 C.ar    1  UNL1        0.0054
     24 C         138.0704  140.2479  165.0328 C.ar    1  UNL1        0.0115
     25 C         138.3029  138.8977  165.6433 C.ar    1  UNL1        0.0577
     26 CL        138.0018  138.6690  167.0949 Cl      1  UNL1       -0.0822
     27 C         138.8364  137.7761  164.8023 C.ar    1  UNL1        0.0115
     28 C         139.1375  138.0048  163.3507 C.ar    1  UNL1        0.0054
     29 C         140.1514  141.8980  157.6165 C.3     1  UNL1        0.0017
     30 C         140.9255  141.5658  158.8575 C.3     1  UNL1        0.0196
@<TRIPOS>BOND
     1    29    30    1
     2    30    17    1
     3    17    18    1
     4    18    19   am
     5    19    20    2
     6    19    22    1
     7    22    23   ar
     8    23    24   ar
     9    24    25   ar
    10    25    26    1
    11    25    27   ar
    12    27    28   ar
    13     1    17    1
    14     1     2    1
    15     2     3    1
    16     3     4    1
    17     4     7    1
    18     7     8   ar
    19     8     9   ar
    20     9    10   ar
    21    10    11   ar
    22    11    12   ar
    23    12    13   ar
    24    13    14    1
    25    13    15   ar
    26    15    16   ar
    27     4     5    1
    28     6     5    1
    29    28    22   ar
    30     6     1    1
    31     6     2    1
    32    16     7   ar
    33    16    10   ar
    34    18    21    1
@<TRIPOS>MOLECULE
*****
 30 34 0 0 0
SMALL
GASTEIGER

@<TRIPOS>ATOM
      1 C         141.7644  138.0759  157.9322 C.3     1  UNL1        0.0181
      2 C         141.3112  137.1672  156.8281 C.3     1  UNL1        0.0036
      3 C         141.1267  136.1077  155.7824 C.3     1  UNL1        0.0227
      4 C         142.3169  135.1962  155.8309 C.3     1  UNL1        0.0870
      5 C         143.2371  135.6923  156.9066 C.3     1  UNL1        0.0227
      6 C         142.6156  136.9104  157.5229 C.3     1  UNL1        0.0036
      7 N         142.5466  133.9988  154.9572 N.ar    1  UNL1       -0.3109
      8 C         142.0578  133.8277  153.5494 C.ar    1  UNL1        0.1785
      9 N         142.5147  132.4854  153.0601 N.ar    1  UNL1       -0.2239
     10 C         143.2858  131.8269  154.1654 C.ar    1  UNL1        0.0989
     11 C         143.9726  130.4964  154.2556 C.ar    1  UNL1        0.0229
     12 C         144.6791  130.1013  155.5184 C.ar    1  UNL1        0.0313
     13 C         144.6989  131.0366  156.6909 C.ar    1  UNL1        0.1417
     14 F         145.4054  130.6414  157.9537 F       1  UNL1       -0.2041
     15 C         144.0121  132.3671  156.6006 C.ar    1  UNL1        0.0484
     16 C         143.3056  132.7622  155.3379 C.ar    1  UNL1        0.0811
     17 C         141.5347  139.2732  158.8059 C.3     1  UNL1        0.0718
     18 N         141.6392  139.1449  160.2968 N.am    1  UNL1       -0.3025
     19 C         142.9844  139.0011  160.9447 C.2     1  UNL1        0.2458
     20 O         144.2251  138.9855  160.1018 O.2     1  UNL1       -0.2701
     21 H         140.8249  139.1552  160.8500 H       1  UNL1        0.1497
     22 C         143.0889  138.8728  162.4356 C.ar    1  UNL1        0.0534
     23 C         142.0191  138.1546  163.2034 C.ar    1  UNL1        0.0054
     24 C         142.1236  138.0263  164.6942 C.ar    1  UNL1        0.0115
     25 C         143.2979  138.6164  165.4173 C.ar    1  UNL1        0.0577
     26 CL        143.4023  138.4881  166.9081 Cl      1  UNL1       -0.0822
     27 C         144.3677  139.3347  164.6495 C.ar    1  UNL1        0.0115
     28 C         144.2632  139.4629  163.1587 C.ar    1  UNL1        0.0054
     29 C         142.1288  141.2139  157.1839 C.3     1  UNL1        0.0017
     30 C         141.2005  140.5990  158.1888 C.3     1  UNL1        0.0196
@<TRIPOS>BOND
     1    29    30    1
     2    30    17    1
     3    17    18    1
     4    18    19   am
     5    19    20    2
     6    19    22    1
     7    22    23   ar
     8    23    24   ar
     9    24    25   ar
    10    25    26    1
    11    25    27   ar
    12    27    28   ar
    13     1    17    1
    14     1     2    1
    15     2     3    1
    16     3     4    1
    17     4     7    1
    18     7     8   ar
    19     8     9   ar
    20     9    10   ar
    21    10    11   ar
    22    11    12   ar
    23    12    13   ar
    24    13    14    1
    25    13    15   ar
    26    15    16   ar
    27     4     5    1
    28     6     5    1
    29    28    22   ar
    30     6     1    1
    31     6     2    1
    32    16     7   ar
    33    16    10   ar
    34    18    21    1
@<TRIPOS>MOLECULE
*****
 30 34 0 0 0
SMALL
GASTEIGER

@<TRIPOS>ATOM
      1 C         138.8260  142.4611  162.9791 C.3     1  UNL1        0.0181
      2 C         138.3351  141.3885  162.0524 C.3     1  UNL1        0.0036
      3 C         138.0143  140.4693  160.9113 C.3     1  UNL1        0.0227
      4 C         138.7248  140.9781  159.6922 C.3     1  UNL1        0.0870
      5 C         139.4847  142.2119  160.0798 C.3     1  UNL1        0.0227
      6 C         139.2439  142.4656  161.5384 C.3     1  UNL1        0.0036
      7 N         138.6827  140.3615  158.3255 N.ar    1  UNL1       -0.3109
      8 C         137.6700  140.6522  157.2578 C.ar    1  UNL1        0.1785
      9 N         138.0074  139.8163  156.0590 N.ar    1  UNL1       -0.2239
     10 C         139.2286  139.0089  156.3857 C.ar    1  UNL1        0.0989
     11 C         140.0145  138.0104  155.5886 C.ar    1  UNL1        0.0229
     12 C         141.2178  137.3489  156.1923 C.ar    1  UNL1        0.0313
     13 C         141.6351  137.6858  157.5931 C.ar    1  UNL1        0.1417
     14 F         142.8385  137.0243  158.1969 F       1  UNL1       -0.2041
     15 C         140.8493  138.6843  158.3902 C.ar    1  UNL1        0.0484
     16 C         139.6460  139.3458  157.7865 C.ar    1  UNL1        0.0811
     17 C         138.8681  143.0777  164.3458 C.3     1  UNL1        0.0718
     18 N         139.7440  142.4850  165.4094 N.am    1  UNL1       -0.3025
     19 C         139.4131  141.1429  165.9918 C.2     1  UNL1        0.2458
     20 O         138.2061  140.3935  165.5105 O.2     1  UNL1       -0.2701
     21 H         140.5362  142.9769  165.7253 H       1  UNL1        0.1497
     22 C         140.2891  140.5501  167.0554 C.ar    1  UNL1        0.0534
     23 C         141.6548  140.0394  166.7037 C.ar    1  UNL1        0.0054
     24 C         142.5309  139.4467  167.7673 C.ar    1  UNL1        0.0115
     25 C         142.0411  139.3647  169.1827 C.ar    1  UNL1        0.0577
     26 CL        142.9171  138.7720  170.2463 Cl      1  UNL1       -0.0822
     27 C         140.6753  139.8754  169.5345 C.ar    1  UNL1        0.0115
     28 C         139.7992  140.4681  168.4709 C.ar    1  UNL1        0.0054
     29 C         138.2943  145.0851  165.8921 C.3     1  UNL1        0.0017
     30 C         138.0341  144.2872  164.6490 C.3     1  UNL1        0.0196
@<TRIPOS>BOND
     1    29    30    1
     2    30    17    1
     3    17    18    1
     4    18    19   am
     5    19    20    2
     6    19    22    1
     7    22    23   ar
     8    23    24   ar
     9    24    25   ar
    10    25    26    1
    11    25    27   ar
    12    27    28   ar
    13     1    17    1
    14     1     2    1
    15     2     3    1
    16     3     4    1
    17     4     7    1
    18     7     8   ar
    19     8     9   ar
    20     9    10   ar
    21    10    11   ar
    22    11    12   ar
    23    12    13   ar
    24    13    14    1
    25    13    15   ar
    26    15    16   ar
    27     4     5    1
    28     6     5    1
    29    28    22   ar
    30     6     1    1
    31     6     2    1
    32    16     7   ar
    33    16    10   ar
    34    18    21    1
@<TRIPOS>MOLECULE
*****
 30 34 0 0 0
SMALL
GASTEIGER

@<TRIPOS>ATOM
      1 C         141.8030  143.6318  162.3264 C.3     1  UNL1        0.0181
      2 C         141.1649  142.9607  163.5065 C.3     1  UNL1        0.0036
      3 C         140.8232  142.2357  164.7744 C.3     1  UNL1        0.0227
      4 C         142.1065  141.8376  165.4412 C.3     1  UNL1        0.0870
      5 C         143.2415  142.3166  164.5853 C.3     1  UNL1        0.0227
      6 C         142.6596  143.0107  163.3897 C.3     1  UNL1        0.0036
      7 N         142.2328  141.0916  166.7363 N.ar    1  UNL1       -0.3109
      8 C         142.8690  139.7457  166.9202 C.ar    1  UNL1        0.1785
      9 N         142.7744  139.3828  168.3725 N.ar    1  UNL1       -0.2239
     10 C         142.0797  140.5044  169.0863 C.ar    1  UNL1        0.0989
     11 C         141.7087  140.7004  170.5264 C.ar    1  UNL1        0.0229
     12 C         141.0030  141.9526  170.9552 C.ar    1  UNL1        0.0313
     13 C         140.6682  143.0087  169.9440 C.ar    1  UNL1        0.1417
     14 F         139.9625  144.2610  170.3729 F       1  UNL1       -0.2041
     15 C         141.0392  142.8127  168.5039 C.ar    1  UNL1        0.0484
     16 C         141.7449  141.5605  168.0751 C.ar    1  UNL1        0.0811
     17 C         141.6767  144.3778  161.0313 C.3     1  UNL1        0.0718
     18 N         142.6890  144.1697  159.9441 N.am    1  UNL1       -0.3025
     19 C         142.5499  143.0112  159.0015 C.2     1  UNL1        0.2458
     20 O         141.3984  142.0608  159.1461 O.2     1  UNL1       -0.2701
     21 H         143.4447  144.7935  159.8492 H       1  UNL1        0.1497
     22 C         143.5622  142.8031  157.9143 C.ar    1  UNL1        0.0534
     23 C         144.9897  142.5057  158.2656 C.ar    1  UNL1        0.0054
     24 C         146.0020  142.2976  157.1785 C.ar    1  UNL1        0.0115
     25 C         145.5867  142.3869  155.7399 C.ar    1  UNL1        0.0577
     26 CL        146.5990  142.1788  154.6527 Cl      1  UNL1       -0.0822
     27 C         144.1591  142.6843  155.3885 C.ar    1  UNL1        0.0115
     28 C         143.1468  142.8924  156.4756 C.ar    1  UNL1        0.0054
     29 C         139.9589  146.0745  161.9907 C.3     1  UNL1        0.0017
     30 C         140.5382  145.3321  160.8232 C.3     1  UNL1        0.0196
@<TRIPOS>BOND
     1    29    30    1
     2    30    17    1
     3    17    18    1
     4    18    19   am
     5    19    20    2
     6    19    22    1
     7    22    23   ar
     8    23    24   ar
     9    24    25   ar
    10    25    26    1
    11    25    27   ar
    12    27    28   ar
    13     1    17    1
    14     1     2    1
    15     2     3    1
    16     3     4    1
    17     4     7    1
    18     7     8   ar
    19     8     9   ar
    20     9    10   ar
    21    10    11   ar
    22    11    12   ar
    23    12    13   ar
    24    13    14    1
    25    13    15   ar
    26    15    16   ar
    27     4     5    1
    28     6     5    1
    29    28    22   ar
    30     6     1    1
    31     6     2    1
    32    16     7   ar
    33    16    10   ar
    34    18    21    1
