@<TRIPOS>MOLECULE
*****
 33 37 0 0 0
SMALL
GASTEIGER

@<TRIPOS>ATOM
      1 C         138.7291  139.9190  164.9375 C.ar    1  UNL1        0.0017
      2 C         137.9553  139.0870  165.9167 C.ar    1  UNL1        0.0016
      3 C         138.3295  139.0965  167.3692 C.ar    1  UNL1        0.0192
      4 C         139.4776  139.9378  167.8425 C.ar    1  UNL1        0.0857
      5 N         139.8519  139.9472  169.2951 N.ar    1  UNL1       -0.2239
      6 C         141.0000  140.7886  169.7683 C.ar    1  UNL1        0.2000
      7 N         141.7738  141.6206  168.7889 N.ar    1  UNL1       -0.2090
      8 C         141.3996  141.6112  167.3364 C.ar    1  UNL1        0.1348
      9 C         140.2515  140.7698  166.8632 C.ar    1  UNL1        0.0493
     10 C         139.8772  140.7603  165.4107 C.ar    1  UNL1        0.0043
     11 C         137.6063  139.8908  160.5798 C.ar    1  UNL1        0.2250
     12 C         138.1926  138.6629  161.2112 C.ar    1  UNL1        0.0577
     13 C         138.5668  138.6723  162.6638 C.ar    1  UNL1        0.0063
     14 C         138.3548  139.9096  163.4849 C.ar    1  UNL1        0.0194
     15 C         137.7686  141.1374  162.8535 C.ar    1  UNL1        0.1020
     16 N         137.3943  141.1281  161.4010 N.ar    1  UNL1       -0.2101
     17 C         138.0519  140.6536  158.1366 C.3     1  UNL1        0.2542
     18 O         137.2321  139.8814  159.1273 O.3     1  UNL1       -0.4561
     19 N         142.1734  142.4431  166.3572 N.pl3   1  UNL1       -0.2927
     20 C         143.6508  142.6312  166.5356 C.3     1  UNL1        0.0922
     21 C         144.4247  143.4632  165.5563 C.3     1  UNL1        0.0220
     22 C         143.7211  144.1070  164.3986 C.3     1  UNL1        0.0126
     23 C         142.2436  143.9190  164.2201 C.3     1  UNL1        0.0965
     24 C         141.4698  143.0870  165.1994 C.3     1  UNL1        0.1012
     25 C         141.5400  144.5629  163.0623 C.2     1  UNL1        0.2269
     26 O         140.4270  145.5377  163.3092 O.2     1  UNL1       -0.2748
     27 N         141.9495  144.2321  161.6578 N.am    1  UNL1       -0.2766
     28 C         143.0626  143.2573  161.4109 C.3     1  UNL1        0.1107
     29 C         143.4720  142.9265  160.0064 C.3     1  UNL1        0.0939
     30 N         142.7684  143.5704  158.8486 N.3     1  UNL1       -0.2686
     31 C         143.1779  143.2396  157.4440 C.3     1  UNL1        0.0897
     32 C         141.6554  144.5452  159.0954 C.3     1  UNL1        0.0939
     33 C         141.2459  144.8760  160.5001 C.3     1  UNL1        0.1107
@<TRIPOS>BOND
     1    17    18    1
     2    18    11    1
     3    11    12   ar
     4    12    13   ar
     5    13    14   ar
     6    14     1    1
     7     1     2   ar
     8     2     3   ar
     9     3     4   ar
    10     4     5   ar
    11     5     6   ar
    12     6     7   ar
    13     7     8   ar
    14     8    19    1
    15    19    20    1
    16    20    21    1
    17    21    22    1
    18    22    23    1
    19    23    25    1
    20    25    26    2
    21    25    27   am
    22    27    28    1
    23    28    29    1
    24    29    30    1
    25    30    31    1
    26    30    32    1
    27    32    33    1
    28    23    24    1
    29     8     9   ar
    30     9    10   ar
    31    14    15   ar
    32    15    16   ar
    33    16    11   ar
    34    10     1   ar
    35     9     4   ar
    36    24    19    1
    37    33    27    1
@<TRIPOS>MOLECULE
*****
 33 37 0 0 0
SMALL
GASTEIGER

@<TRIPOS>ATOM
      1 C         139.9659  143.1156  165.3845 C.ar    1  UNL1        0.0017
      2 C         138.9015  144.1702  165.4530 C.ar    1  UNL1        0.0016
      3 C         138.6782  145.0872  164.2871 C.ar    1  UNL1        0.0192
      4 C         139.5193  144.9496  163.0528 C.ar    1  UNL1        0.0857
      5 N         139.2960  145.8667  161.8870 N.ar    1  UNL1       -0.2239
      6 C         140.1371  145.7291  160.6526 C.ar    1  UNL1        0.2000
      7 N         141.2016  144.6744  160.5841 N.ar    1  UNL1       -0.2090
      8 C         141.4249  143.7574  161.7500 C.ar    1  UNL1        0.1348
      9 C         140.5838  143.8950  162.9843 C.ar    1  UNL1        0.0493
     10 C         140.8071  142.9780  164.1501 C.ar    1  UNL1        0.0043
     11 C         140.6360  140.3644  168.8819 C.ar    1  UNL1        0.2250
     12 C         140.9126  141.8323  169.0187 C.ar    1  UNL1        0.0577
     13 C         140.6893  142.7494  167.8528 C.ar    1  UNL1        0.0063
     14 C         140.1893  142.1985  166.5503 C.ar    1  UNL1        0.0194
     15 C         139.9127  140.7306  166.4136 C.ar    1  UNL1        0.1020
     16 N         140.1360  139.8136  167.5794 N.ar    1  UNL1       -0.2101
     17 C         142.2297  138.9023  170.3214 C.3     1  UNL1        0.2542
     18 O         140.8593  139.4473  170.0477 O.3     1  UNL1       -0.4561
     19 N         142.4893  142.7028  161.6815 N.pl3   1  UNL1       -0.2927
     20 C         143.8669  142.9928  162.1995 C.3     1  UNL1        0.0922
     21 C         144.9313  141.9381  162.1309 C.3     1  UNL1        0.0220
     22 C         144.6182  140.5935  161.5444 C.3     1  UNL1        0.0126
     23 C         143.2407  140.3036  161.0264 C.3     1  UNL1        0.0965
     24 C         142.1763  141.3582  161.0949 C.3     1  UNL1        0.1012
     25 C         142.9276  138.9589  160.4399 C.2     1  UNL1        0.2269
     26 O         142.5339  137.8227  161.3366 O.2     1  UNL1       -0.2748
     27 N         143.0083  138.7504  158.9567 N.am    1  UNL1       -0.2766
     28 C         143.4020  139.8866  158.0599 C.3     1  UNL1        0.1107
     29 C         143.4826  139.6781  156.5767 C.3     1  UNL1        0.0939
     30 N         143.1696  138.3334  155.9901 N.3     1  UNL1       -0.2686
     31 C         143.2502  138.1250  154.5069 C.3     1  UNL1        0.0897
     32 C         142.7758  137.1973  156.8869 C.3     1  UNL1        0.0939
     33 C         142.6952  137.4058  158.3702 C.3     1  UNL1        0.1107
@<TRIPOS>BOND
     1    17    18    1
     2    18    11    1
     3    11    12   ar
     4    12    13   ar
     5    13    14   ar
     6    14     1    1
     7     1     2   ar
     8     2     3   ar
     9     3     4   ar
    10     4     5   ar
    11     5     6   ar
    12     6     7   ar
    13     7     8   ar
    14     8    19    1
    15    19    20    1
    16    20    21    1
    17    21    22    1
    18    22    23    1
    19    23    25    1
    20    25    26    2
    21    25    27   am
    22    27    28    1
    23    28    29    1
    24    29    30    1
    25    30    31    1
    26    30    32    1
    27    32    33    1
    28    23    24    1
    29     8     9   ar
    30     9    10   ar
    31    14    15   ar
    32    15    16   ar
    33    16    11   ar
    34    10     1   ar
    35     9     4   ar
    36    24    19    1
    37    33    27    1
@<TRIPOS>MOLECULE
*****
 33 37 0 0 0
SMALL
GASTEIGER

@<TRIPOS>ATOM
      1 C         142.8837  139.5988  164.4762 C.ar    1  UNL1        0.0017
      2 C         143.5978  138.6790  165.4217 C.ar    1  UNL1        0.0016
      3 C         143.2681  138.7041  166.8848 C.ar    1  UNL1        0.0192
      4 C         142.2243  139.6489  167.4023 C.ar    1  UNL1        0.0857
      5 N         141.8946  139.6739  168.8655 N.ar    1  UNL1       -0.2239
      6 C         140.8508  140.6187  169.3830 C.ar    1  UNL1        0.2000
      7 N         140.1367  141.5385  168.4373 N.ar    1  UNL1       -0.2090
      8 C         140.4664  141.5134  166.9743 C.ar    1  UNL1        0.1348
      9 C         141.5102  140.5686  166.4568 C.ar    1  UNL1        0.0493
     10 C         141.8399  140.5436  164.9937 C.ar    1  UNL1        0.0043
     11 C         143.8727  139.5237  160.0868 C.ar    1  UNL1        0.2250
     12 C         143.7578  138.2386  160.8517 C.ar    1  UNL1        0.0577
     13 C         143.4281  138.2636  162.3149 C.ar    1  UNL1        0.0063
     14 C         143.2134  139.5737  163.0130 C.ar    1  UNL1        0.0194
     15 C         143.3284  140.8589  162.2480 C.ar    1  UNL1        0.1020
     16 N         143.6580  140.8339  160.7850 N.ar    1  UNL1       -0.2101
     17 C         143.1119  139.6594  157.6064 C.3     1  UNL1        0.2542
     18 O         144.2024  139.4988  158.6237 O.3     1  UNL1       -0.4561
     19 N         139.7523  142.4332  166.0287 N.pl3   1  UNL1       -0.2927
     20 C         139.5227  143.8665  166.4066 C.3     1  UNL1        0.0922
     21 C         138.8085  144.7863  165.4609 C.3     1  UNL1        0.0220
     22 C         138.3240  144.2726  164.1376 C.3     1  UNL1        0.0126
     23 C         138.5536  142.8393  163.7597 C.3     1  UNL1        0.0965
     24 C         139.2677  141.9196  164.7053 C.3     1  UNL1        0.1012
     25 C         138.0691  142.3257  162.4362 C.2     1  UNL1        0.2269
     26 O         136.9633  141.3136  162.3839 O.2     1  UNL1       -0.2748
     27 N         138.6904  142.8242  161.1653 N.am    1  UNL1       -0.2766
     28 C         139.7962  143.8363  161.2177 C.3     1  UNL1        0.1107
     29 C         140.4175  144.3348  159.9467 C.3     1  UNL1        0.0939
     30 N         139.9329  143.8212  158.6232 N.3     1  UNL1       -0.2686
     31 C         140.5542  144.3197  157.3522 C.3     1  UNL1        0.0897
     32 C         138.8271  142.8091  158.5708 C.3     1  UNL1        0.0939
     33 C         138.2058  142.3106  159.8419 C.3     1  UNL1        0.1107
@<TRIPOS>BOND
     1    17    18    1
     2    18    11    1
     3    11    12   ar
     4    12    13   ar
     5    13    14   ar
     6    14     1    1
     7     1     2   ar
     8     2     3   ar
     9     3     4   ar
    10     4     5   ar
    11     5     6   ar
    12     6     7   ar
    13     7     8   ar
    14     8    19    1
    15    19    20    1
    16    20    21    1
    17    21    22    1
    18    22    23    1
    19    23    25    1
    20    25    26    2
    21    25    27   am
    22    27    28    1
    23    28    29    1
    24    29    30    1
    25    30    31    1
    26    30    32    1
    27    32    33    1
    28    23    24    1
    29     8     9   ar
    30     9    10   ar
    31    14    15   ar
    32    15    16   ar
    33    16    11   ar
    34    10     1   ar
    35     9     4   ar
    36    24    19    1
    37    33    27    1
@<TRIPOS>MOLECULE
*****
 33 37 0 0 0
SMALL
GASTEIGER

@<TRIPOS>ATOM
      1 C         140.9979  141.2811  158.9691 C.ar    1  UNL1        0.0017
      2 C         139.9374  142.1004  158.2952 C.ar    1  UNL1        0.0016
      3 C         139.5115  143.4104  158.8889 C.ar    1  UNL1        0.0192
      4 C         140.1461  143.9011  160.1564 C.ar    1  UNL1        0.0857
      5 N         139.7201  145.2112  160.7500 N.ar    1  UNL1       -0.2239
      6 C         140.3547  145.7019  162.0175 C.ar    1  UNL1        0.2000
      7 N         141.4152  144.8825  162.6914 N.ar    1  UNL1       -0.2090
      8 C         141.8411  143.5725  162.0977 C.ar    1  UNL1        0.1348
      9 C         141.2065  143.0818  160.8302 C.ar    1  UNL1        0.0493
     10 C         141.6324  141.7718  160.2366 C.ar    1  UNL1        0.0043
     11 C         142.2758  137.3509  157.1883 C.ar    1  UNL1        0.2250
     12 C         140.8241  137.7277  157.2102 C.ar    1  UNL1        0.0577
     13 C         140.3981  139.0378  157.8038 C.ar    1  UNL1        0.0063
     14 C         141.4239  139.9710  158.3755 C.ar    1  UNL1        0.0194
     15 C         142.8756  139.5942  158.3537 C.ar    1  UNL1        0.1020
     16 N         143.3016  138.2842  157.7601 N.ar    1  UNL1       -0.2101
     17 C         143.9494  135.9636  155.7656 C.3     1  UNL1        0.2542
     18 O         142.7018  136.0409  156.5948 O.3     1  UNL1       -0.4561
     19 N         142.9015  142.7532  162.7716 N.pl3   1  UNL1       -0.2927
     20 C         144.3418  142.9332  162.3933 C.3     1  UNL1        0.0922
     21 C         145.4023  142.1138  163.0672 C.3     1  UNL1        0.0220
     22 C         145.0225  141.1146  164.1194 C.3     1  UNL1        0.0126
     23 C         143.5821  140.9347  164.4978 C.3     1  UNL1        0.0965
     24 C         142.5217  141.7540  163.8239 C.3     1  UNL1        0.1012
     25 C         143.2023  139.9354  165.5501 C.2     1  UNL1        0.2269
     26 O         143.1600  138.4737  165.2159 O.2     1  UNL1       -0.2748
     27 N         142.8649  140.3978  166.9365 N.am    1  UNL1       -0.2766
     28 C         142.9072  141.8595  167.2708 C.3     1  UNL1        0.1107
     29 C         142.5698  142.3220  168.6572 C.3     1  UNL1        0.0939
     30 N         142.1900  141.3227  169.7095 N.3     1  UNL1       -0.2686
     31 C         141.8525  141.7851  171.0959 C.3     1  UNL1        0.0897
     32 C         142.1476  139.8610  169.3753 C.3     1  UNL1        0.0939
     33 C         142.4851  139.3986  167.9888 C.3     1  UNL1        0.1107
@<TRIPOS>BOND
     1    17    18    1
     2    18    11    1
     3    11    12   ar
     4    12    13   ar
     5    13    14   ar
     6    14     1    1
     7     1     2   ar
     8     2     3   ar
     9     3     4   ar
    10     4     5   ar
    11     5     6   ar
    12     6     7   ar
    13     7     8   ar
    14     8    19    1
    15    19    20    1
    16    20    21    1
    17    21    22    1
    18    22    23    1
    19    23    25    1
    20    25    26    2
    21    25    27   am
    22    27    28    1
    23    28    29    1
    24    29    30    1
    25    30    31    1
    26    30    32    1
    27    32    33    1
    28    23    24    1
    29     8     9   ar
    30     9    10   ar
    31    14    15   ar
    32    15    16   ar
    33    16    11   ar
    34    10     1   ar
    35     9     4   ar
    36    24    19    1
    37    33    27    1
@<TRIPOS>MOLECULE
*****
 33 37 0 0 0
SMALL
GASTEIGER

@<TRIPOS>ATOM
      1 C         142.5477  139.4142  163.9905 C.ar    1  UNL1        0.0017
      2 C         143.4040  138.8664  165.0934 C.ar    1  UNL1        0.0016
      3 C         143.2909  139.4275  166.4799 C.ar    1  UNL1        0.0192
      4 C         142.3213  140.5364  166.7634 C.ar    1  UNL1        0.0857
      5 N         142.2081  141.0975  168.1499 N.ar    1  UNL1       -0.2239
      6 C         141.2385  142.2063  168.4335 C.ar    1  UNL1        0.2000
      7 N         140.3821  142.7541  167.3304 N.ar    1  UNL1       -0.2090
      8 C         140.4953  142.1930  165.9440 C.ar    1  UNL1        0.1348
      9 C         141.4649  141.0841  165.6605 C.ar    1  UNL1        0.0493
     10 C         141.5781  140.5230  164.2740 C.ar    1  UNL1        0.0043
     11 C         142.8872  137.7309  159.8309 C.ar    1  UNL1        0.2250
     12 C         141.5433  138.1092  160.3795 C.ar    1  UNL1        0.0577
     13 C         141.4302  138.6703  161.7661 C.ar    1  UNL1        0.0063
     14 C         142.6608  138.8531  162.6039 C.ar    1  UNL1        0.0194
     15 C         144.0047  138.4747  162.0554 C.ar    1  UNL1        0.1020
     16 N         144.1179  137.9136  160.6689 N.ar    1  UNL1       -0.2101
     17 C         142.0867  137.6594  157.3604 C.3     1  UNL1        0.2542
     18 O         143.0004  137.1698  158.4445 O.3     1  UNL1       -0.4561
     19 N         139.6389  142.7407  164.8410 N.pl3   1  UNL1       -0.2927
     20 C         138.1912  142.3576  164.7549 C.3     1  UNL1        0.0922
     21 C         137.3348  142.9054  163.6518 C.3     1  UNL1        0.0220
     22 C         137.9261  143.8362  162.6351 C.3     1  UNL1        0.0126
     23 C         139.3738  144.2193  162.7212 C.3     1  UNL1        0.0965
     24 C         140.2302  143.6716  163.8242 C.3     1  UNL1        0.1012
     25 C         139.9651  145.1502  161.7043 C.2     1  UNL1        0.2269
     26 O         139.9275  146.6322  161.9328 O.2     1  UNL1       -0.2748
     27 N         140.5940  144.5990  160.4591 N.am    1  UNL1       -0.2766
     28 C         140.6316  143.1170  160.2306 C.3     1  UNL1        0.1107
     29 C         141.2605  142.5658  158.9854 C.3     1  UNL1        0.0939
     30 N         141.8518  143.4967  157.9685 N.3     1  UNL1       -0.2686
     31 C         142.4807  142.9455  156.7233 C.3     1  UNL1        0.0897
     32 C         141.8142  144.9787  158.1970 C.3     1  UNL1        0.0939
     33 C         141.1853  145.5298  159.4423 C.3     1  UNL1        0.1107
@<TRIPOS>BOND
     1    17    18    1
     2    18    11    1
     3    11    12   ar
     4    12    13   ar
     5    13    14   ar
     6    14     1    1
     7     1     2   ar
     8     2     3   ar
     9     3     4   ar
    10     4     5   ar
    11     5     6   ar
    12     6     7   ar
    13     7     8   ar
    14     8    19    1
    15    19    20    1
    16    20    21    1
    17    21    22    1
    18    22    23    1
    19    23    25    1
    20    25    26    2
    21    25    27   am
    22    27    28    1
    23    28    29    1
    24    29    30    1
    25    30    31    1
    26    30    32    1
    27    32    33    1
    28    23    24    1
    29     8     9   ar
    30     9    10   ar
    31    14    15   ar
    32    15    16   ar
    33    16    11   ar
    34    10     1   ar
    35     9     4   ar
    36    24    19    1
    37    33    27    1
@<TRIPOS>MOLECULE
*****
 33 37 0 0 0
SMALL
GASTEIGER

@<TRIPOS>ATOM
      1 C         139.5574  139.8650  166.0956 C.ar    1  UNL1        0.0017
      2 C         139.3098  138.3894  166.2009 C.ar    1  UNL1        0.0016
      3 C         138.8115  137.6257  165.0098 C.ar    1  UNL1        0.0192
      4 C         138.5608  138.3377  163.7136 C.ar    1  UNL1        0.0857
      5 N         138.0625  137.5740  162.5226 N.ar    1  UNL1       -0.2239
      6 C         137.8118  138.2860  161.2264 C.ar    1  UNL1        0.2000
      7 N         138.0594  139.7618  161.1212 N.ar    1  UNL1       -0.2090
      8 C         138.5577  140.5254  162.3122 C.ar    1  UNL1        0.1348
      9 C         138.8084  139.8134  163.6084 C.ar    1  UNL1        0.0493
     10 C         139.3066  140.5770  164.7994 C.ar    1  UNL1        0.0043
     11 C         141.0522  142.1561  169.6687 C.ar    1  UNL1        0.2250
     12 C         140.0685  141.0387  169.8522 C.ar    1  UNL1        0.0577
     13 C         139.5703  140.2750  168.6612 C.ar    1  UNL1        0.0063
     14 C         140.0556  140.6287  167.2867 C.ar    1  UNL1        0.0194
     15 C         141.0393  141.7462  167.1032 C.ar    1  UNL1        0.1020
     16 N         141.5376  142.5099  168.2941 N.ar    1  UNL1       -0.2101
     17 C         142.9568  143.4413  170.8814 C.3     1  UNL1        0.2542
     18 O         141.5505  142.9198  170.8596 O.3     1  UNL1       -0.4561
     19 N         138.8052  142.0011  162.2070 N.pl3   1  UNL1       -0.2927
     20 C         137.9110  142.9649  162.9289 C.3     1  UNL1        0.0922
     21 C         138.1586  144.4407  162.8237 C.3     1  UNL1        0.0220
     22 C         139.3004  144.9524  161.9965 C.3     1  UNL1        0.0126
     23 C         140.1947  143.9886  161.2746 C.3     1  UNL1        0.0965
     24 C         139.9472  142.5129  161.3798 C.3     1  UNL1        0.1012
     25 C         141.3366  144.5004  160.4474 C.2     1  UNL1        0.2269
     26 O         142.6643  144.7743  161.0897 O.2     1  UNL1       -0.2748
     27 N         141.1509  144.7383  158.9782 N.am    1  UNL1       -0.2766
     28 C         139.8233  144.4644  158.3360 C.3     1  UNL1        0.1107
     29 C         139.6376  144.7023  156.8667 C.3     1  UNL1        0.0939
     30 N         140.7795  145.2142  156.0395 N.3     1  UNL1       -0.2686
     31 C         140.5938  145.4521  154.5702 C.3     1  UNL1        0.0897
     32 C         142.1071  145.4881  156.6817 C.3     1  UNL1        0.0939
     33 C         142.2928  145.2501  158.1511 C.3     1  UNL1        0.1107
@<TRIPOS>BOND
     1    17    18    1
     2    18    11    1
     3    11    12   ar
     4    12    13   ar
     5    13    14   ar
     6    14     1    1
     7     1     2   ar
     8     2     3   ar
     9     3     4   ar
    10     4     5   ar
    11     5     6   ar
    12     6     7   ar
    13     7     8   ar
    14     8    19    1
    15    19    20    1
    16    20    21    1
    17    21    22    1
    18    22    23    1
    19    23    25    1
    20    25    26    2
    21    25    27   am
    22    27    28    1
    23    28    29    1
    24    29    30    1
    25    30    31    1
    26    30    32    1
    27    32    33    1
    28    23    24    1
    29     8     9   ar
    30     9    10   ar
    31    14    15   ar
    32    15    16   ar
    33    16    11   ar
    34    10     1   ar
    35     9     4   ar
    36    24    19    1
    37    33    27    1
@<TRIPOS>MOLECULE
*****
 33 37 0 0 0
SMALL
GASTEIGER

@<TRIPOS>ATOM
      1 C         140.2295  138.6325  162.9700 C.ar    1  UNL1        0.0017
      2 C         139.3651  137.5989  163.6291 C.ar    1  UNL1        0.0016
      3 C         138.9742  137.7555  165.0687 C.ar    1  UNL1        0.0192
      4 C         139.4477  138.9456  165.8493 C.ar    1  UNL1        0.0857
      5 N         139.0568  139.1022  167.2890 N.ar    1  UNL1       -0.2239
      6 C         139.5303  140.2923  168.0696 C.ar    1  UNL1        0.2000
      7 N         140.3948  141.3259  167.4105 N.ar    1  UNL1       -0.2090
      8 C         140.7857  141.1694  165.9708 C.ar    1  UNL1        0.1348
      9 C         140.3122  139.9792  165.1902 C.ar    1  UNL1        0.0493
     10 C         140.7031  139.8226  163.7506 C.ar    1  UNL1        0.0043
     11 C         141.4023  138.1629  158.6509 C.ar    1  UNL1        0.2250
     12 C         142.4374  138.0274  159.7281 C.ar    1  UNL1        0.0577
     13 C         142.0464  138.1839  161.1678 C.ar    1  UNL1        0.0063
     14 C         140.6205  138.4760  161.5303 C.ar    1  UNL1        0.0194
     15 C         139.5855  138.6115  160.4531 C.ar    1  UNL1        0.1020
     16 N         139.9764  138.4550  159.0134 N.ar    1  UNL1       -0.2101
     17 C         142.9085  138.8328  156.6428 C.3     1  UNL1        0.2542
     18 O         141.7932  138.0064  157.2112 O.3     1  UNL1       -0.4561
     19 N         141.6502  142.2029  165.3118 N.pl3   1  UNL1       -0.2927
     20 C         143.0473  142.4373  165.8048 C.3     1  UNL1        0.0922
     21 C         143.9118  143.4709  165.1457 C.3     1  UNL1        0.0220
     22 C         143.3791  144.2701  163.9936 C.3     1  UNL1        0.0126
     23 C         141.9820  144.0358  163.5005 C.3     1  UNL1        0.0965
     24 C         141.1175  143.0022  164.1596 C.3     1  UNL1        0.1012
     25 C         141.4493  144.8351  162.3484 C.2     1  UNL1        0.2269
     26 O         140.5385  145.9999  162.6010 O.2     1  UNL1       -0.2748
     27 N         141.8274  144.4697  160.9436 N.am    1  UNL1       -0.2766
     28 C         142.7382  143.3049  160.6909 C.3     1  UNL1        0.1107
     29 C         143.1163  142.9395  159.2861 C.3     1  UNL1        0.0939
     30 N         142.5837  143.7388  158.1340 N.3     1  UNL1       -0.2686
     31 C         142.9618  143.3733  156.7292 C.3     1  UNL1        0.0897
     32 C         141.6729  144.9035  158.3866 C.3     1  UNL1        0.0939
     33 C         141.2948  145.2690  159.7915 C.3     1  UNL1        0.1107
@<TRIPOS>BOND
     1    17    18    1
     2    18    11    1
     3    11    12   ar
     4    12    13   ar
     5    13    14   ar
     6    14     1    1
     7     1     2   ar
     8     2     3   ar
     9     3     4   ar
    10     4     5   ar
    11     5     6   ar
    12     6     7   ar
    13     7     8   ar
    14     8    19    1
    15    19    20    1
    16    20    21    1
    17    21    22    1
    18    22    23    1
    19    23    25    1
    20    25    26    2
    21    25    27   am
    22    27    28    1
    23    28    29    1
    24    29    30    1
    25    30    31    1
    26    30    32    1
    27    32    33    1
    28    23    24    1
    29     8     9   ar
    30     9    10   ar
    31    14    15   ar
    32    15    16   ar
    33    16    11   ar
    34    10     1   ar
    35     9     4   ar
    36    24    19    1
    37    33    27    1
@<TRIPOS>MOLECULE
*****
 33 37 0 0 0
SMALL
GASTEIGER

@<TRIPOS>ATOM
      1 C         138.9518  139.6522  165.1394 C.ar    1  UNL1        0.0017
      2 C         137.9497  139.5856  166.2534 C.ar    1  UNL1        0.0016
      3 C         138.4137  139.5728  167.6798 C.ar    1  UNL1        0.0192
      4 C         139.8798  139.6266  167.9921 C.ar    1  UNL1        0.0857
      5 N         140.3438  139.6138  169.4185 N.ar    1  UNL1       -0.2239
      6 C         141.8099  139.6676  169.7308 C.ar    1  UNL1        0.2000
      7 N         142.8121  139.7341  168.6166 N.ar    1  UNL1       -0.2090
      8 C         142.3481  139.7469  167.1902 C.ar    1  UNL1        0.1348
      9 C         140.8820  139.6932  166.8780 C.ar    1  UNL1        0.0493
     10 C         140.4180  139.7059  165.4516 C.ar    1  UNL1        0.0043
     11 C         137.5599  139.6905  160.8601 C.ar    1  UNL1        0.2250
     12 C         138.2876  138.4958  161.4014 C.ar    1  UNL1        0.0577
     13 C         138.7516  138.4830  162.8279 C.ar    1  UNL1        0.0063
     14 C         138.4878  139.6649  163.7129 C.ar    1  UNL1        0.0194
     15 C         137.7601  140.8597  163.1717 C.ar    1  UNL1        0.1020
     16 N         137.2962  140.8725  161.7453 N.ar    1  UNL1       -0.2101
     17 C         137.8036  140.5557  158.4226 C.3     1  UNL1        0.2542
     18 O         137.0959  139.7034  159.4338 O.3     1  UNL1       -0.4561
     19 N         143.3503  139.8135  166.0762 N.pl3   1  UNL1       -0.2927
     20 C         144.3912  138.7422  165.9388 C.3     1  UNL1        0.0922
     21 C         145.3934  138.8088  164.8246 C.3     1  UNL1        0.0220
     22 C         145.3546  139.9466  163.8479 C.3     1  UNL1        0.0126
     23 C         144.3137  141.0178  163.9853 C.3     1  UNL1        0.0965
     24 C         143.3115  140.9513  165.0994 C.3     1  UNL1        0.1012
     25 C         144.2749  142.1556  163.0086 C.2     1  UNL1        0.2269
     26 O         144.4684  143.5634  163.4890 O.2     1  UNL1       -0.2748
     27 N         144.0427  141.8857  161.5515 N.am    1  UNL1       -0.2766
     28 C         143.8492  140.4779  161.0711 C.3     1  UNL1        0.1107
     29 C         143.6170  140.2080  159.6140 C.3     1  UNL1        0.0939
     30 N         143.5782  141.3458  158.6373 N.3     1  UNL1       -0.2686
     31 C         143.3460  141.0758  157.1802 C.3     1  UNL1        0.0897
     32 C         143.7717  142.7535  159.1177 C.3     1  UNL1        0.0939
     33 C         144.0039  143.0235  160.5749 C.3     1  UNL1        0.1107
@<TRIPOS>BOND
     1    17    18    1
     2    18    11    1
     3    11    12   ar
     4    12    13   ar
     5    13    14   ar
     6    14     1    1
     7     1     2   ar
     8     2     3   ar
     9     3     4   ar
    10     4     5   ar
    11     5     6   ar
    12     6     7   ar
    13     7     8   ar
    14     8    19    1
    15    19    20    1
    16    20    21    1
    17    21    22    1
    18    22    23    1
    19    23    25    1
    20    25    26    2
    21    25    27   am
    22    27    28    1
    23    28    29    1
    24    29    30    1
    25    30    31    1
    26    30    32    1
    27    32    33    1
    28    23    24    1
    29     8     9   ar
    30     9    10   ar
    31    14    15   ar
    32    15    16   ar
    33    16    11   ar
    34    10     1   ar
    35     9     4   ar
    36    24    19    1
    37    33    27    1
@<TRIPOS>MOLECULE
*****
 33 37 0 0 0
SMALL
GASTEIGER

@<TRIPOS>ATOM
      1 C         138.8708  139.6586  165.3161 C.ar    1  UNL1        0.0017
      2 C         137.8709  139.5950  166.4323 C.ar    1  UNL1        0.0016
      3 C         138.3381  139.5750  167.8575 C.ar    1  UNL1        0.0192
      4 C         139.8053  139.6185  168.1665 C.ar    1  UNL1        0.0857
      5 N         140.2725  139.5985  169.5918 N.ar    1  UNL1       -0.2239
      6 C         141.7397  139.6420  169.9007 C.ar    1  UNL1        0.2000
      7 N         142.7397  139.7056  168.7844 N.ar    1  UNL1       -0.2090
      8 C         142.2725  139.7256  167.3592 C.ar    1  UNL1        0.1348
      9 C         140.8053  139.6821  167.0503 C.ar    1  UNL1        0.0493
     10 C         140.3380  139.7022  165.6251 C.ar    1  UNL1        0.0043
     11 C         137.4692  139.7188  161.0403 C.ar    1  UNL1        0.2250
     12 C         138.0314  138.4583  161.6276 C.ar    1  UNL1        0.0577
     13 C         138.4986  138.4382  163.0529 C.ar    1  UNL1        0.0063
     14 C         138.4036  139.6787  163.8908 C.ar    1  UNL1        0.0194
     15 C         137.8414  140.9392  163.3035 C.ar    1  UNL1        0.1020
     16 N         137.3742  140.9593  161.8783 N.ar    1  UNL1       -0.2101
     17 C         137.7573  140.5310  158.5894 C.3     1  UNL1        0.2542
     18 O         137.0020  139.7389  159.6151 O.3     1  UNL1       -0.4561
     19 N         143.2724  139.7892  166.2430 N.pl3   1  UNL1       -0.2927
     20 C         144.2874  138.6965  166.0821 C.3     1  UNL1        0.0922
     21 C         145.2874  138.7601  164.9658 C.3     1  UNL1        0.0220
     22 C         145.2723  139.9164  164.0105 C.3     1  UNL1        0.0126
     23 C         144.2574  141.0091  164.1713 C.3     1  UNL1        0.0965
     24 C         143.2574  140.9455  165.2876 C.3     1  UNL1        0.1012
     25 C         144.2424  142.1654  163.2159 C.2     1  UNL1        0.2269
     26 O         145.4920  142.5448  162.4780 O.2     1  UNL1       -0.2748
     27 N         142.9779  142.9423  162.9985 N.am    1  UNL1       -0.2766
     28 C         141.7283  142.5630  163.7364 C.3     1  UNL1        0.1107
     29 C         140.4637  143.3399  163.5190 C.3     1  UNL1        0.0939
     30 N         140.4488  144.4962  162.5636 N.3     1  UNL1       -0.2686
     31 C         139.1842  145.2731  162.3461 C.3     1  UNL1        0.0897
     32 C         141.6984  144.8756  161.8256 C.3     1  UNL1        0.0939
     33 C         142.9630  144.0986  162.0431 C.3     1  UNL1        0.1107
@<TRIPOS>BOND
     1    17    18    1
     2    18    11    1
     3    11    12   ar
     4    12    13   ar
     5    13    14   ar
     6    14     1    1
     7     1     2   ar
     8     2     3   ar
     9     3     4   ar
    10     4     5   ar
    11     5     6   ar
    12     6     7   ar
    13     7     8   ar
    14     8    19    1
    15    19    20    1
    16    20    21    1
    17    21    22    1
    18    22    23    1
    19    23    25    1
    20    25    26    2
    21    25    27   am
    22    27    28    1
    23    28    29    1
    24    29    30    1
    25    30    31    1
    26    30    32    1
    27    32    33    1
    28    23    24    1
    29     8     9   ar
    30     9    10   ar
    31    14    15   ar
    32    15    16   ar
    33    16    11   ar
    34    10     1   ar
    35     9     4   ar
    36    24    19    1
    37    33    27    1
