@<TRIPOS>MOLECULE
*****
 41 44 0 0 0
SMALL
GASTEIGER

@<TRIPOS>ATOM
      1 C         140.7061  140.5646  163.1401 C.3     1  UNL1        0.0799
      2 C         140.4145  140.5042  164.6103 C.ar    1  UNL1        0.0374
      3 C         140.6323  141.7150  165.4685 C.ar    1  UNL1        0.0023
      4 C         140.3407  141.6546  166.9387 C.ar    1  UNL1        0.0181
      5 C         140.5585  142.8654  167.7968 C.ar    1  UNL1        0.0082
      6 C         140.2669  142.8049  169.2670 C.ar    1  UNL1        0.0347
      7 BR        140.4846  144.0158  170.1252 Br      1  UNL1       -0.0490
      8 C         139.7575  141.5337  169.8789 C.ar    1  UNL1        0.0082
      9 C         139.5397  140.3229  169.0207 C.ar    1  UNL1        0.0197
     10 C         139.8313  140.3833  167.5506 C.ar    1  UNL1        0.0844
     11 N         139.6136  139.1725  166.6923 N.ar    1  UNL1       -0.2119
     12 C         139.9052  139.2330  165.2222 C.ar    1  UNL1        0.2211
     13 O         139.6874  138.0221  164.3640 O.3     1  UNL1       -0.4563
     14 C         140.6963  136.9121  164.3632 C.3     1  UNL1        0.2542
     15 C         142.7508  138.1421  160.7526 C.ar    1  UNL1        0.1657
     16 C         144.0953  138.1569  161.4177 C.ar    1  UNL1        0.0392
     17 C         144.3099  138.9743  162.6569 C.ar    1  UNL1        0.0029
     18 C         143.1802  139.7769  163.2311 C.ar    1  UNL1       -0.0014
     19 C         141.8358  139.7621  162.5660 C.ar    1  UNL1        0.0148
     20 C         141.6211  138.9447  161.3267 C.ar    1  UNL1        0.1702
     21 F         140.4445  138.7040  160.4280 F       1  UNL1       -0.2013
     22 C         142.7205  137.9489  158.1618 C.3     1  UNL1        0.2526
     23 O         142.5361  137.3247  159.5133 O.3     1  UNL1       -0.4692
     24 C         139.8680  141.4276  162.2441 C.3     1  UNL1        0.1160
     25 O         138.6542  140.6237  162.6052 O.3     1  UNL1       -0.3820
     26 H         138.8653  140.0347  163.3465 H       1  UNL1        0.2107
     27 C         141.0818  142.2316  161.8830 C.ar    1  UNL1        0.0064
     28 C         141.7928  143.0300  162.9351 C.ar    1  UNL1        0.0235
     29 C         143.0066  143.8339  162.5740 C.ar    1  UNL1        0.1070
     30 N         143.5094  143.8394  161.1609 N.ar    1  UNL1       -0.2330
     31 C         142.7984  143.0410  160.1088 C.ar    1  UNL1        0.1070
     32 C         141.5846  142.2370  160.4699 C.ar    1  UNL1        0.0235
     33 S         143.7176  144.6324  163.6262 S.3     1  UNL1       -0.0940
     34 C         144.2022  143.9614  164.8772 C.3     1  UNL1        0.0757
     35 S         143.3012  143.0464  158.6955 S.3     1  UNL1       -0.0940
     36 C         144.7023  142.6019  158.3962 C.3     1  UNL1        0.0757
     37 C         139.0299  142.2906  161.3481 C.3     1  UNL1        0.0491
     38 C         137.9572  143.1604  161.9337 C.3     1  UNL1        0.0750
     39 N         138.3107  144.2059  162.9495 N.3     1  UNL1       -0.2702
     40 C         137.8781  144.0419  164.3763 C.3     1  UNL1        0.0897
     41 C         139.0968  145.4155  162.5385 C.3     1  UNL1        0.0897
@<TRIPOS>BOND
     1    22    23    1
     2    23    15    1
     3    15    16   ar
     4    16    17   ar
     5    17    18   ar
     6    18    19   ar
     7     1    19    1
     8     1     2    1
     9     2     3   ar
    10     3     4   ar
    11     4     5   ar
    12     5     6   ar
    13     6     7    1
    14     6     8   ar
    15     8     9   ar
    16     9    10   ar
    17    10    11   ar
    18    11    12   ar
    19    12    13    1
    20    13    14    1
    21     1    24    1
    22    24    25    1
    23    24    37    1
    24    37    38    1
    25    38    39    1
    26    39    40    1
    27    39    41    1
    28    24    27    1
    29    27    28   ar
    30    28    29   ar
    31    29    33    1
    32    33    34    1
    33    29    30   ar
    34    30    31   ar
    35    31    35    1
    36    35    36    1
    37    31    32   ar
    38    19    20   ar
    39    20    21    1
    40    20    15   ar
    41    12     2   ar
    42    32    27   ar
    43    10     4   ar
    44    25    26    1
@<TRIPOS>MOLECULE
*****
 41 44 0 0 0
SMALL
GASTEIGER

@<TRIPOS>ATOM
      1 C         139.4074  140.7318  164.4100 C.3     1  UNL1        0.0799
      2 C         139.6507  140.6489  165.8878 C.ar    1  UNL1        0.0374
      3 C         140.6558  141.5552  166.5345 C.ar    1  UNL1        0.0023
      4 C         140.8991  141.4723  168.0123 C.ar    1  UNL1        0.0181
      5 C         141.9043  142.3786  168.6590 C.ar    1  UNL1        0.0082
      6 C         142.1475  142.2957  170.1368 C.ar    1  UNL1        0.0347
      7 BR        143.1527  143.2021  170.7835 Br      1  UNL1       -0.0490
      8 C         141.3855  141.3065  170.9679 C.ar    1  UNL1        0.0082
      9 C         140.3804  140.4001  170.3213 C.ar    1  UNL1        0.0197
     10 C         140.1372  140.4831  168.8435 C.ar    1  UNL1        0.0844
     11 N         139.1319  139.5767  168.1968 N.ar    1  UNL1       -0.2119
     12 C         138.8887  139.6596  166.7190 C.ar    1  UNL1        0.2211
     13 O         137.8835  138.7533  166.0723 O.3     1  UNL1       -0.4563
     14 C         138.1066  137.2700  166.0648 C.3     1  UNL1        0.2542
     15 C         138.9063  143.6876  161.8097 C.ar    1  UNL1        0.1657
     16 C         137.9825  144.5866  162.5769 C.ar    1  UNL1        0.0392
     17 C         137.5338  144.2006  163.9552 C.ar    1  UNL1        0.0029
     18 C         138.0088  142.9156  164.5662 C.ar    1  UNL1       -0.0014
     19 C         138.9325  142.0167  163.7989 C.ar    1  UNL1        0.0148
     20 C         139.3812  142.4027  162.4207 C.ar    1  UNL1        0.1702
     21 F         140.2739  141.7639  161.3984 F       1  UNL1       -0.2013
     22 C         140.5389  144.9776  160.2539 C.3     1  UNL1        0.2526
     23 O         139.3551  144.0737  160.4314 O.3     1  UNL1       -0.4692
     24 C         139.6391  139.5297  163.5432 C.3     1  UNL1        0.1160
     25 O         138.1766  139.4860  163.2129 O.3     1  UNL1       -0.3820
     26 H         137.7487  140.2959  163.5319 H       1  UNL1        0.2107
     27 C         141.1016  139.5734  163.8735 C.ar    1  UNL1        0.0064
     28 C         141.6251  138.8214  165.0610 C.ar    1  UNL1        0.0235
     29 C         143.0877  138.8651  165.3913 C.ar    1  UNL1        0.1070
     30 N         144.0267  139.6609  164.5341 N.ar    1  UNL1       -0.2330
     31 C         143.5032  140.4129  163.3465 C.ar    1  UNL1        0.1070
     32 C         142.0407  140.3692  163.0162 C.ar    1  UNL1        0.0235
     33 S         143.6111  138.1131  166.5790 S.3     1  UNL1       -0.0940
     34 C         143.2177  138.5316  167.9647 C.3     1  UNL1        0.0757
     35 S         144.4422  141.2087  162.4891 S.3     1  UNL1       -0.0940
     36 C         145.6702  141.8235  163.0926 C.3     1  UNL1        0.0757
     37 C         139.8708  138.3276  162.6764 C.3     1  UNL1        0.0491
     38 C         139.0349  138.1156  161.4491 C.3     1  UNL1        0.0750
     39 N         139.2421  138.9814  160.2418 N.3     1  UNL1       -0.2702
     40 C         138.1281  139.8543  159.7448 C.3     1  UNL1        0.0897
     41 C         140.5632  138.9742  159.5315 C.3     1  UNL1        0.0897
@<TRIPOS>BOND
     1    22    23    1
     2    23    15    1
     3    15    16   ar
     4    16    17   ar
     5    17    18   ar
     6    18    19   ar
     7     1    19    1
     8     1     2    1
     9     2     3   ar
    10     3     4   ar
    11     4     5   ar
    12     5     6   ar
    13     6     7    1
    14     6     8   ar
    15     8     9   ar
    16     9    10   ar
    17    10    11   ar
    18    11    12   ar
    19    12    13    1
    20    13    14    1
    21     1    24    1
    22    24    25    1
    23    24    37    1
    24    37    38    1
    25    38    39    1
    26    39    40    1
    27    39    41    1
    28    24    27    1
    29    27    28   ar
    30    28    29   ar
    31    29    33    1
    32    33    34    1
    33    29    30   ar
    34    30    31   ar
    35    31    35    1
    36    35    36    1
    37    31    32   ar
    38    19    20   ar
    39    20    21    1
    40    20    15   ar
    41    12     2   ar
    42    32    27   ar
    43    10     4   ar
    44    25    26    1
@<TRIPOS>MOLECULE
*****
 41 44 0 0 0
SMALL
GASTEIGER

@<TRIPOS>ATOM
      1 C         141.8905  141.7363  164.4735 C.3     1  UNL1        0.0799
      2 C         142.6635  141.9970  163.2146 C.ar    1  UNL1        0.0374
      3 C         141.9796  141.9080  161.8826 C.ar    1  UNL1        0.0023
      4 C         142.7525  142.1687  160.6237 C.ar    1  UNL1        0.0181
      5 C         142.0687  142.0797  159.2917 C.ar    1  UNL1        0.0082
      6 C         142.8416  142.3404  158.0330 C.ar    1  UNL1        0.0347
      7 BR        142.1577  142.2514  156.7008 Br      1  UNL1       -0.0490
      8 C         144.2984  142.6903  158.1062 C.ar    1  UNL1        0.0082
      9 C         144.9822  142.7793  159.4382 C.ar    1  UNL1        0.0197
     10 C         144.2093  142.5186  160.6970 C.ar    1  UNL1        0.0844
     11 N         144.8932  142.6076  162.0291 N.ar    1  UNL1       -0.2119
     12 C         144.1203  142.3469  163.2879 C.ar    1  UNL1        0.2211
     13 O         144.8041  142.4359  164.6200 O.3     1  UNL1       -0.4563
     14 C         144.7570  143.7143  165.4033 C.3     1  UNL1        0.2542
     15 C         142.9519  139.9572  167.8584 C.ar    1  UNL1        0.1657
     16 C         143.2921  138.5831  167.3620 C.ar    1  UNL1        0.0392
     17 C         143.1651  138.2602  165.9027 C.ar    1  UNL1        0.0029
     18 C         142.6979  139.3113  164.9398 C.ar    1  UNL1       -0.0014
     19 C         142.3577  140.6852  165.4363 C.ar    1  UNL1        0.0148
     20 C         142.4848  141.0082  166.8956 C.ar    1  UNL1        0.1702
     21 F         142.2377  142.2396  167.7157 F       1  UNL1       -0.2013
     22 C         141.9242  140.0352  170.2434 C.3     1  UNL1        0.2526
     23 O         143.0790  140.2801  169.3178 O.3     1  UNL1       -0.4692
     24 C         140.6504  142.5265  164.7695 C.3     1  UNL1        0.1160
     25 O         141.4697  143.7802  164.8547 O.3     1  UNL1       -0.3820
     26 H         142.3677  143.6020  164.5343 H       1  UNL1        0.2107
     27 C         139.8312  141.2729  164.6842 C.ar    1  UNL1        0.0064
     28 C         139.2358  140.6801  165.9268 C.ar    1  UNL1        0.0235
     29 C         138.4166  139.4265  165.8416 C.ar    1  UNL1        0.1070
     30 N         138.1927  138.7657  164.5137 N.ar    1  UNL1       -0.2330
     31 C         138.7881  139.3585  163.2712 C.ar    1  UNL1        0.1070
     32 C         139.6073  140.6121  163.3564 C.ar    1  UNL1        0.0235
     33 S         137.8211  138.8337  167.0842 S.3     1  UNL1       -0.0940
     34 C         137.3071  137.4246  167.0711 C.3     1  UNL1        0.0757
     35 S         138.5643  138.6977  161.9432 S.3     1  UNL1       -0.0940
     36 C         137.5246  139.2340  161.0044 C.3     1  UNL1        0.0757
     37 C         139.4103  143.3168  165.0654 C.3     1  UNL1        0.0491
     38 C         139.1834  144.6370  164.3904 C.3     1  UNL1        0.0750
     39 N         139.2315  144.7324  162.8942 N.3     1  UNL1       -0.2702
     40 C         138.4433  143.7704  162.0556 C.3     1  UNL1        0.0897
     41 C         140.0677  145.7898  162.2367 C.3     1  UNL1        0.0897
@<TRIPOS>BOND
     1    22    23    1
     2    23    15    1
     3    15    16   ar
     4    16    17   ar
     5    17    18   ar
     6    18    19   ar
     7     1    19    1
     8     1     2    1
     9     2     3   ar
    10     3     4   ar
    11     4     5   ar
    12     5     6   ar
    13     6     7    1
    14     6     8   ar
    15     8     9   ar
    16     9    10   ar
    17    10    11   ar
    18    11    12   ar
    19    12    13    1
    20    13    14    1
    21     1    24    1
    22    24    25    1
    23    24    37    1
    24    37    38    1
    25    38    39    1
    26    39    40    1
    27    39    41    1
    28    24    27    1
    29    27    28   ar
    30    28    29   ar
    31    29    33    1
    32    33    34    1
    33    29    30   ar
    34    30    31   ar
    35    31    35    1
    36    35    36    1
    37    31    32   ar
    38    19    20   ar
    39    20    21    1
    40    20    15   ar
    41    12     2   ar
    42    32    27   ar
    43    10     4   ar
    44    25    26    1
@<TRIPOS>MOLECULE
*****
 41 44 0 0 0
SMALL
GASTEIGER

@<TRIPOS>ATOM
      1 C         140.6934  140.6085  162.9437 C.3     1  UNL1        0.0799
      2 C         140.4696  140.4864  164.4219 C.ar    1  UNL1        0.0374
      3 C         140.6020  141.6933  165.3027 C.ar    1  UNL1        0.0023
      4 C         140.3781  141.5712  166.7810 C.ar    1  UNL1        0.0181
      5 C         140.5106  142.7781  167.6617 C.ar    1  UNL1        0.0082
      6 C         140.2867  142.6560  169.1399 C.ar    1  UNL1        0.0347
      7 BR        140.4191  143.8629  170.0208 Br      1  UNL1       -0.0490
      8 C         139.9305  141.3270  169.7372 C.ar    1  UNL1        0.0082
      9 C         139.7980  140.1201  168.8564 C.ar    1  UNL1        0.0197
     10 C         140.0219  140.2422  167.3783 C.ar    1  UNL1        0.0844
     11 N         139.8895  139.0353  166.4974 N.ar    1  UNL1       -0.2119
     12 C         140.1133  139.1574  165.0193 C.ar    1  UNL1        0.2211
     13 O         139.9809  137.9505  164.1384 O.3     1  UNL1       -0.4563
     14 C         138.6696  137.6447  163.4773 C.3     1  UNL1        0.2542
     15 C         142.4608  138.2386  160.2962 C.ar    1  UNL1        0.1657
     16 C         143.8132  138.0718  160.9234 C.ar    1  UNL1        0.0392
     17 C         144.1256  138.7505  162.2241 C.ar    1  UNL1        0.0029
     18 C         143.0856  139.5962  162.8975 C.ar    1  UNL1       -0.0014
     19 C         141.7333  139.7629  162.2703 C.ar    1  UNL1        0.0148
     20 C         141.4209  139.0841  160.9697 C.ar    1  UNL1        0.1702
     21 F         140.2104  139.0331  160.0853 F       1  UNL1       -0.2013
     22 C         142.7107  138.0995  157.7139 C.3     1  UNL1        0.2526
     23 O         142.1485  137.5598  158.9956 O.3     1  UNL1       -0.4692
     24 C         139.8773  141.5762  162.1390 C.3     1  UNL1        0.1160
     25 O         138.6334  140.8101  162.4794 O.3     1  UNL1       -0.3820
     26 H         138.8336  140.1584  163.1693 H       1  UNL1        0.2107
     27 C         141.1212  142.3422  161.7986 C.ar    1  UNL1        0.0064
     28 C         141.6373  142.3470  160.3903 C.ar    1  UNL1        0.0235
     29 C         142.8812  143.1130  160.0499 C.ar    1  UNL1        0.1070
     30 N         143.6091  143.8743  161.1179 N.ar    1  UNL1       -0.2330
     31 C         143.0930  143.8695  162.5263 C.ar    1  UNL1        0.1070
     32 C         141.8490  143.1035  162.8666 C.ar    1  UNL1        0.0235
     33 S         143.3973  143.1177  158.6414 S.3     1  UNL1       -0.0940
     34 C         143.3561  141.8611  157.8233 C.3     1  UNL1        0.0757
     35 S         143.8208  144.6308  163.5943 S.3     1  UNL1       -0.0940
     36 C         144.2493  143.9345  164.8520 C.3     1  UNL1        0.0757
     37 C         139.0612  142.5438  161.3343 C.3     1  UNL1        0.0491
     38 C         138.1329  143.4981  162.0253 C.3     1  UNL1        0.0750
     39 N         138.6890  144.6226  162.8476 N.3     1  UNL1       -0.2702
     40 C         138.5588  144.5949  164.3416 C.3     1  UNL1        0.0897
     41 C         139.3754  145.7748  162.1758 C.3     1  UNL1        0.0897
@<TRIPOS>BOND
     1    22    23    1
     2    23    15    1
     3    15    16   ar
     4    16    17   ar
     5    17    18   ar
     6    18    19   ar
     7     1    19    1
     8     1     2    1
     9     2     3   ar
    10     3     4   ar
    11     4     5   ar
    12     5     6   ar
    13     6     7    1
    14     6     8   ar
    15     8     9   ar
    16     9    10   ar
    17    10    11   ar
    18    11    12   ar
    19    12    13    1
    20    13    14    1
    21     1    24    1
    22    24    25    1
    23    24    37    1
    24    37    38    1
    25    38    39    1
    26    39    40    1
    27    39    41    1
    28    24    27    1
    29    27    28   ar
    30    28    29   ar
    31    29    33    1
    32    33    34    1
    33    29    30   ar
    34    30    31   ar
    35    31    35    1
    36    35    36    1
    37    31    32   ar
    38    19    20   ar
    39    20    21    1
    40    20    15   ar
    41    12     2   ar
    42    32    27   ar
    43    10     4   ar
    44    25    26    1
@<TRIPOS>MOLECULE
*****
 41 44 0 0 0
SMALL
GASTEIGER

@<TRIPOS>ATOM
      1 C         141.3625  142.0114  164.5004 C.3     1  UNL1        0.0799
      2 C         142.2449  142.1962  163.3015 C.ar    1  UNL1        0.0374
      3 C         142.0317  141.3569  162.0767 C.ar    1  UNL1        0.0023
      4 C         142.9141  141.5418  160.8778 C.ar    1  UNL1        0.0181
      5 C         142.7008  140.7025  159.6531 C.ar    1  UNL1        0.0082
      6 C         143.5832  140.8873  158.4543 C.ar    1  UNL1        0.0347
      7 BR        143.3700  140.0480  157.2294 Br      1  UNL1       -0.0490
      8 C         144.6788  141.9115  158.4802 C.ar    1  UNL1        0.0082
      9 C         144.8921  142.7508  159.7050 C.ar    1  UNL1        0.0197
     10 C         144.0097  142.5659  160.9038 C.ar    1  UNL1        0.0844
     11 N         144.2230  143.4052  162.1286 N.ar    1  UNL1       -0.2119
     12 C         143.3406  143.2204  163.3274 C.ar    1  UNL1        0.2211
     13 O         143.5538  144.0597  164.5522 O.3     1  UNL1       -0.4563
     14 C         144.5936  143.6663  165.5593 C.3     1  UNL1        0.2542
     15 C         142.1807  141.0176  168.2544 C.ar    1  UNL1        0.1657
     16 C         142.8547  139.6923  168.0563 C.ar    1  UNL1        0.0392
     17 C         143.0313  139.1400  166.6729 C.ar    1  UNL1        0.0029
     18 C         142.5339  139.9131  165.4876 C.ar    1  UNL1       -0.0014
     19 C         141.8599  141.2384  165.6857 C.ar    1  UNL1        0.0148
     20 C         141.6833  141.7907  167.0691 C.ar    1  UNL1        0.1702
     21 F         141.0741  143.0458  167.6201 F       1  UNL1       -0.2013
     22 C         140.8070  141.1805  170.4536 C.3     1  UNL1        0.2526
     23 O         142.0041  141.5699  169.6378 O.3     1  UNL1       -0.4692
     24 C         139.9827  142.5996  164.5139 C.3     1  UNL1        0.1160
     25 O         140.5711  143.9792  164.5366 O.3     1  UNL1       -0.3820
     26 H         141.5250  143.9267  164.3686 H       1  UNL1        0.2107
     27 C         139.3944  141.2200  164.4911 C.ar    1  UNL1        0.0064
     28 C         139.3509  140.4442  163.2081 C.ar    1  UNL1        0.0235
     29 C         138.7625  139.0646  163.1854 C.ar    1  UNL1        0.1070
     30 N         138.2176  138.4608  164.4457 N.ar    1  UNL1       -0.2330
     31 C         138.2610  139.2367  165.7287 C.ar    1  UNL1        0.1070
     32 C         138.8494  140.6163  165.7514 C.ar    1  UNL1        0.0235
     33 S         138.7191  138.2888  161.9023 S.3     1  UNL1       -0.0940
     34 C         139.9189  138.2599  161.0024 C.3     1  UNL1        0.0757
     35 S         137.7161  138.6329  166.9891 S.3     1  UNL1       -0.0940
     36 C         137.3415  137.1808  167.0242 C.3     1  UNL1        0.0757
     37 C         138.6029  143.1879  164.5274 C.3     1  UNL1        0.0491
     38 C         138.1691  144.1080  163.4251 C.3     1  UNL1        0.0750
     39 N         138.7001  143.9162  162.0354 N.3     1  UNL1       -0.2702
     40 C         139.7512  144.8426  161.4997 C.3     1  UNL1        0.0897
     41 C         138.1800  142.7981  161.1814 C.3     1  UNL1        0.0897
@<TRIPOS>BOND
     1    22    23    1
     2    23    15    1
     3    15    16   ar
     4    16    17   ar
     5    17    18   ar
     6    18    19   ar
     7     1    19    1
     8     1     2    1
     9     2     3   ar
    10     3     4   ar
    11     4     5   ar
    12     5     6   ar
    13     6     7    1
    14     6     8   ar
    15     8     9   ar
    16     9    10   ar
    17    10    11   ar
    18    11    12   ar
    19    12    13    1
    20    13    14    1
    21     1    24    1
    22    24    25    1
    23    24    37    1
    24    37    38    1
    25    38    39    1
    26    39    40    1
    27    39    41    1
    28    24    27    1
    29    27    28   ar
    30    28    29   ar
    31    29    33    1
    32    33    34    1
    33    29    30   ar
    34    30    31   ar
    35    31    35    1
    36    35    36    1
    37    31    32   ar
    38    19    20   ar
    39    20    21    1
    40    20    15   ar
    41    12     2   ar
    42    32    27   ar
    43    10     4   ar
    44    25    26    1
@<TRIPOS>MOLECULE
*****
 41 44 0 0 0
SMALL
GASTEIGER

@<TRIPOS>ATOM
      1 C         142.1491  141.8161  163.5524 C.3     1  UNL1        0.0799
      2 C         142.4233  141.9497  165.0211 C.ar    1  UNL1        0.0374
      3 C         141.5829  141.2004  166.0121 C.ar    1  UNL1        0.0023
      4 C         141.8571  141.3340  167.4808 C.ar    1  UNL1        0.0181
      5 C         141.0167  140.5847  168.4719 C.ar    1  UNL1        0.0082
      6 C         141.2910  140.7183  169.9405 C.ar    1  UNL1        0.0347
      7 BR        140.4506  139.9690  170.9317 Br      1  UNL1       -0.0490
      8 C         142.4056  141.6012  170.4181 C.ar    1  UNL1        0.0082
      9 C         143.2460  142.3505  169.4270 C.ar    1  UNL1        0.0197
     10 C         142.9717  142.2169  167.9584 C.ar    1  UNL1        0.0844
     11 N         143.8121  142.9662  166.9672 N.ar    1  UNL1       -0.2119
     12 C         143.5379  142.8326  165.4986 C.ar    1  UNL1        0.2211
     13 O         144.3783  143.5819  164.5075 O.3     1  UNL1       -0.4563
     14 C         144.0081  144.9821  164.1171 C.3     1  UNL1        0.2542
     15 C         141.2593  144.5674  160.8343 C.ar    1  UNL1        0.1657
     16 C         139.9544  145.0808  161.3671 C.ar    1  UNL1        0.0392
     17 C         139.3811  144.5058  162.6284 C.ar    1  UNL1        0.0029
     18 C         140.1127  143.4176  163.3568 C.ar    1  UNL1       -0.0014
     19 C         141.4175  142.9043  162.8239 C.ar    1  UNL1        0.0148
     20 C         141.9908  143.4792  161.5627 C.ar    1  UNL1        0.1702
     21 F         143.2348  143.2135  160.7677 F       1  UNL1       -0.2013
     22 C         140.9288  145.4814  158.4248 C.3     1  UNL1        0.2526
     23 O         141.8326  145.1424  159.5730 O.3     1  UNL1       -0.4692
     24 C         142.6064  140.5942  162.8121 C.3     1  UNL1        0.1160
     25 O         144.0141  141.1121  162.8270 O.3     1  UNL1       -0.3820
     26 H         144.0700  141.8797  163.4174 H       1  UNL1        0.2107
     27 C         141.1987  140.0763  162.7973 C.ar    1  UNL1        0.0064
     28 C         140.3309  140.2973  161.5941 C.ar    1  UNL1        0.0235
     29 C         138.9232  139.7794  161.5793 C.ar    1  UNL1        0.1070
     30 N         138.3834  139.0405  162.7677 N.ar    1  UNL1       -0.2330
     31 C         139.2512  138.8194  163.9710 C.ar    1  UNL1        0.1070
     32 C         140.6589  139.3374  163.9858 C.ar    1  UNL1        0.0235
     33 S         138.0553  140.0005  160.3759 S.3     1  UNL1       -0.0940
     34 C         138.4213  141.0515  159.3702 C.3     1  UNL1        0.0757
     35 S         138.7114  138.0805  165.1595 S.3     1  UNL1       -0.0940
     36 C         138.1204  138.8402  166.3100 C.3     1  UNL1        0.0757
     37 C         143.0637  139.3724  162.0719 C.3     1  UNL1        0.0491
     38 C         144.0632  139.4989  160.9607 C.3     1  UNL1        0.0750
     39 N         143.6231  139.3452  159.5349 N.3     1  UNL1       -0.2702
     40 C         143.9730  140.3970  158.5244 C.3     1  UNL1        0.0897
     41 C         142.8331  138.1396  159.1198 C.3     1  UNL1        0.0897
@<TRIPOS>BOND
     1    22    23    1
     2    23    15    1
     3    15    16   ar
     4    16    17   ar
     5    17    18   ar
     6    18    19   ar
     7     1    19    1
     8     1     2    1
     9     2     3   ar
    10     3     4   ar
    11     4     5   ar
    12     5     6   ar
    13     6     7    1
    14     6     8   ar
    15     8     9   ar
    16     9    10   ar
    17    10    11   ar
    18    11    12   ar
    19    12    13    1
    20    13    14    1
    21     1    24    1
    22    24    25    1
    23    24    37    1
    24    37    38    1
    25    38    39    1
    26    39    40    1
    27    39    41    1
    28    24    27    1
    29    27    28   ar
    30    28    29   ar
    31    29    33    1
    32    33    34    1
    33    29    30   ar
    34    30    31   ar
    35    31    35    1
    36    35    36    1
    37    31    32   ar
    38    19    20   ar
    39    20    21    1
    40    20    15   ar
    41    12     2   ar
    42    32    27   ar
    43    10     4   ar
    44    25    26    1
@<TRIPOS>MOLECULE
*****
 41 44 0 0 0
SMALL
GASTEIGER

@<TRIPOS>ATOM
      1 C         141.4175  140.7989  163.0471 C.3     1  UNL1        0.0799
      2 C         141.4569  140.6593  164.5401 C.ar    1  UNL1        0.0374
      3 C         141.0590  141.8131  165.4120 C.ar    1  UNL1        0.0023
      4 C         141.0984  141.6735  166.9050 C.ar    1  UNL1        0.0181
      5 C         140.7004  142.8273  167.7769 C.ar    1  UNL1        0.0082
      6 C         140.7398  142.6876  169.2699 C.ar    1  UNL1        0.0347
      7 BR        140.3418  143.8415  170.1419 Br      1  UNL1       -0.0490
      8 C         141.1771  141.3942  169.8909 C.ar    1  UNL1        0.0082
      9 C         141.5751  140.2403  169.0190 C.ar    1  UNL1        0.0197
     10 C         141.5357  140.3800  167.5260 C.ar    1  UNL1        0.0844
     11 N         141.9336  139.2261  166.6540 N.ar    1  UNL1       -0.2119
     12 C         141.8942  139.3658  165.1611 C.ar    1  UNL1        0.2211
     13 O         142.2922  138.2119  164.2891 O.3     1  UNL1       -0.4563
     14 C         141.3222  137.0972  164.0314 C.3     1  UNL1        0.2542
     15 C         139.5845  138.8069  160.1451 C.ar    1  UNL1        0.1657
     16 C         138.1842  138.7511  160.6802 C.ar    1  UNL1        0.0392
     17 C         137.8618  139.3779  162.0043 C.ar    1  UNL1        0.0029
     18 C         138.9396  140.0605  162.7933 C.ar    1  UNL1       -0.0014
     19 C         140.3398  140.1163  162.2581 C.ar    1  UNL1        0.0148
     20 C         140.6622  139.4895  160.9340 C.ar    1  UNL1        0.1702
     21 F         141.9153  139.3607  160.1197 F       1  UNL1       -0.2013
     22 C         139.6797  138.9479  157.5526 C.3     1  UNL1        0.2526
     23 O         139.9069  138.1801  158.8210 O.3     1  UNL1       -0.4692
     24 C         142.4560  141.6211  162.3431 C.3     1  UNL1        0.1160
     25 O         143.5257  140.6923  162.8361 O.3     1  UNL1       -0.3820
     26 H         143.1153  139.9063  163.2294 H       1  UNL1        0.2107
     27 C         141.3863  142.5500  161.8500 C.ar    1  UNL1        0.0064
     28 C         140.4312  143.1771  162.8219 C.ar    1  UNL1        0.0235
     29 C         139.3615  144.1059  162.3289 C.ar    1  UNL1        0.1070
     30 N         139.2469  144.4076  160.8640 N.ar    1  UNL1       -0.2330
     31 C         140.2019  143.7804  159.8922 C.ar    1  UNL1        0.1070
     32 C         141.2716  142.8516  160.3852 C.ar    1  UNL1        0.0235
     33 S         138.4064  144.7331  163.3008 S.3     1  UNL1       -0.0940
     34 C         138.1269  144.0653  164.6145 C.3     1  UNL1        0.0757
     35 S         140.0873  144.0821  158.4273 S.3     1  UNL1       -0.0940
     36 C         140.3749  145.4646  157.9215 C.3     1  UNL1        0.0757
     37 C         143.4944  142.4434  161.6391 C.3     1  UNL1        0.0491
     38 C         144.5373  143.1736  162.4322 C.3     1  UNL1        0.0750
     39 N         144.1769  143.8024  163.7455 N.3     1  UNL1       -0.2702
     40 C         143.4376  145.1072  163.7745 C.3     1  UNL1        0.0897
     41 C         144.5559  143.1265  165.0298 C.3     1  UNL1        0.0897
@<TRIPOS>BOND
     1    22    23    1
     2    23    15    1
     3    15    16   ar
     4    16    17   ar
     5    17    18   ar
     6    18    19   ar
     7     1    19    1
     8     1     2    1
     9     2     3   ar
    10     3     4   ar
    11     4     5   ar
    12     5     6   ar
    13     6     7    1
    14     6     8   ar
    15     8     9   ar
    16     9    10   ar
    17    10    11   ar
    18    11    12   ar
    19    12    13    1
    20    13    14    1
    21     1    24    1
    22    24    25    1
    23    24    37    1
    24    37    38    1
    25    38    39    1
    26    39    40    1
    27    39    41    1
    28    24    27    1
    29    27    28   ar
    30    28    29   ar
    31    29    33    1
    32    33    34    1
    33    29    30   ar
    34    30    31   ar
    35    31    35    1
    36    35    36    1
    37    31    32   ar
    38    19    20   ar
    39    20    21    1
    40    20    15   ar
    41    12     2   ar
    42    32    27   ar
    43    10     4   ar
    44    25    26    1
@<TRIPOS>MOLECULE
*****
 41 44 0 0 0
SMALL
GASTEIGER

@<TRIPOS>ATOM
      1 C         139.8832  142.3916  160.2802 C.3     1  UNL1        0.0799
      2 C         139.8818  141.1533  161.1267 C.ar    1  UNL1        0.0374
      3 C         139.2064  141.1611  162.4660 C.ar    1  UNL1        0.0023
      4 C         139.2050  139.9227  163.3126 C.ar    1  UNL1        0.0181
      5 C         138.5296  139.9305  164.6518 C.ar    1  UNL1        0.0082
      6 C         138.5283  138.6922  165.4983 C.ar    1  UNL1        0.0347
      7 BR        137.8529  138.7000  166.8377 Br      1  UNL1       -0.0490
      8 C         139.2023  137.4461  165.0055 C.ar    1  UNL1        0.0082
      9 C         139.8777  137.4383  163.6662 C.ar    1  UNL1        0.0197
     10 C         139.8790  138.6766  162.8197 C.ar    1  UNL1        0.0844
     11 N         140.5544  138.6688  161.4803 N.ar    1  UNL1       -0.2119
     12 C         140.5558  139.9071  160.6339 C.ar    1  UNL1        0.2211
     13 O         141.2312  139.8994  159.2945 O.3     1  UNL1       -0.4563
     14 C         142.4520  139.0559  159.0751 C.3     1  UNL1        0.2542
     15 C         137.5189  141.3704  157.2608 C.ar    1  UNL1        0.1657
     16 C         137.9751  142.3337  156.2052 C.ar    1  UNL1        0.0392
     17 C         139.0673  143.3162  156.5080 C.ar    1  UNL1        0.0029
     18 C         139.7034  143.3355  157.8664 C.ar    1  UNL1       -0.0014
     19 C         139.2472  142.3723  158.9219 C.ar    1  UNL1        0.0148
     20 C         138.1549  141.3898  158.6191 C.ar    1  UNL1        0.1702
     21 F         137.4709  140.3152  159.4112 F       1  UNL1       -0.2013
     22 C         135.2885  140.7835  156.0646 C.3     1  UNL1        0.2526
     23 O         136.4267  140.3879  156.9579 O.3     1  UNL1       -0.4692
     24 C         140.5206  143.6493  160.7920 C.3     1  UNL1        0.1160
     25 O         139.1661  144.2773  160.9359 O.3     1  UNL1       -0.3820
     26 H         138.4815  143.6010  160.8141 H       1  UNL1        0.2107
     27 C         141.8752  143.0212  160.6482 C.ar    1  UNL1        0.0064
     28 C         142.5777  143.0486  159.3232 C.ar    1  UNL1        0.0235
     29 C         143.9323  142.4206  159.1793 C.ar    1  UNL1        0.1070
     30 N         144.5844  141.7652  160.3605 N.ar    1  UNL1       -0.2330
     31 C         143.8819  141.7378  161.6855 C.ar    1  UNL1        0.1070
     32 C         142.5273  142.3658  161.8294 C.ar    1  UNL1        0.0235
     33 S         144.6348  142.4480  157.8542 S.3     1  UNL1       -0.0940
     34 C         144.9295  141.1651  157.1349 C.3     1  UNL1        0.0757
     35 S         144.5339  141.0823  162.8668 S.3     1  UNL1       -0.0940
     36 C         145.7440  141.7056  163.4970 C.3     1  UNL1        0.0757
     37 C         141.1581  144.9069  161.3039 C.3     1  UNL1        0.0491
     38 C         140.5901  145.5997  162.5069 C.3     1  UNL1        0.0750
     39 N         140.2734  144.8141  163.7449 N.3     1  UNL1       -0.2702
     40 C         141.3674  144.0959  164.4778 C.3     1  UNL1        0.0897
     41 C         138.8626  144.7468  164.2500 C.3     1  UNL1        0.0897
@<TRIPOS>BOND
     1    22    23    1
     2    23    15    1
     3    15    16   ar
     4    16    17   ar
     5    17    18   ar
     6    18    19   ar
     7     1    19    1
     8     1     2    1
     9     2     3   ar
    10     3     4   ar
    11     4     5   ar
    12     5     6   ar
    13     6     7    1
    14     6     8   ar
    15     8     9   ar
    16     9    10   ar
    17    10    11   ar
    18    11    12   ar
    19    12    13    1
    20    13    14    1
    21     1    24    1
    22    24    25    1
    23    24    37    1
    24    37    38    1
    25    38    39    1
    26    39    40    1
    27    39    41    1
    28    24    27    1
    29    27    28   ar
    30    28    29   ar
    31    29    33    1
    32    33    34    1
    33    29    30   ar
    34    30    31   ar
    35    31    35    1
    36    35    36    1
    37    31    32   ar
    38    19    20   ar
    39    20    21    1
    40    20    15   ar
    41    12     2   ar
    42    32    27   ar
    43    10     4   ar
    44    25    26    1
@<TRIPOS>MOLECULE
*****
 41 44 0 0 0
SMALL
GASTEIGER

@<TRIPOS>ATOM
      1 C         139.4786  140.6247  164.4896 C.3     1  UNL1        0.0799
      2 C         139.6802  140.6012  165.9758 C.ar    1  UNL1        0.0374
      3 C         140.7003  141.5005  166.6087 C.ar    1  UNL1        0.0023
      4 C         140.9019  141.4769  168.0949 C.ar    1  UNL1        0.0181
      5 C         141.9221  142.3763  168.7277 C.ar    1  UNL1        0.0082
      6 C         142.1236  142.3527  170.2139 C.ar    1  UNL1        0.0347
      7 BR        143.1438  143.2520  170.8468 Br      1  UNL1       -0.0490
      8 C         141.3051  141.4298  171.0673 C.ar    1  UNL1        0.0082
      9 C         140.2849  140.5305  170.4344 C.ar    1  UNL1        0.0197
     10 C         140.0834  140.5541  168.9483 C.ar    1  UNL1        0.0844
     11 N         139.0632  139.6547  168.3154 N.ar    1  UNL1       -0.2119
     12 C         138.8616  139.6783  166.8292 C.ar    1  UNL1        0.2211
     13 O         137.8415  138.7789  166.1963 O.3     1  UNL1       -0.4563
     14 C         137.8038  137.3218  166.5501 C.3     1  UNL1        0.2542
     15 C         139.0161  143.4814  161.7738 C.ar    1  UNL1        0.1657
     16 C         138.0417  144.3823  162.4731 C.ar    1  UNL1        0.0392
     17 C         137.5463  144.0306  163.8446 C.ar    1  UNL1        0.0029
     18 C         138.0253  142.7780  164.5167 C.ar    1  UNL1       -0.0014
     19 C         138.9997  141.8772  163.8174 C.ar    1  UNL1        0.0148
     20 C         139.4951  142.2289  162.4460 C.ar    1  UNL1        0.1702
     21 F         140.4428  141.5788  161.4820 F       1  UNL1       -0.2013
     22 C         139.0194  143.0696  159.2085 C.3     1  UNL1        0.2526
     23 O         139.5115  143.8330  160.4024 O.3     1  UNL1       -0.4692
     24 C         139.7560  139.3957  163.6755 C.3     1  UNL1        0.1160
     25 O         138.3102  139.3307  163.2812 O.3     1  UNL1       -0.3820
     26 H         137.8639  140.1479  163.5528 H       1  UNL1        0.2107
     27 C         141.2017  139.4608  164.0699 C.ar    1  UNL1        0.0064
     28 C         142.1441  140.3552  163.3203 C.ar    1  UNL1        0.0235
     29 C         143.5899  140.4203  163.7147 C.ar    1  UNL1        0.1070
     30 N         144.0933  139.5910  164.8587 N.ar    1  UNL1       -0.2330
     31 C         143.1509  138.6966  165.6083 C.ar    1  UNL1        0.1070
     32 C         141.7052  138.6315  165.2139 C.ar    1  UNL1        0.0235
     33 S         144.5322  141.3148  162.9650 S.3     1  UNL1       -0.0940
     34 C         144.2576  141.6604  161.5315 C.3     1  UNL1        0.0757
     35 S         143.6543  137.8672  166.7523 S.3     1  UNL1       -0.0940
     36 C         145.0742  137.3836  166.7604 C.3     1  UNL1        0.0757
     37 C         140.0334  138.1667  162.8615 C.3     1  UNL1        0.0491
     38 C         139.2622  137.9127  161.6003 C.3     1  UNL1        0.0750
     39 N         139.5411  138.7292  160.3733 N.3     1  UNL1       -0.2702
     40 C         138.4565  139.5721  159.7708 C.3     1  UNL1        0.0897
     41 C         140.9047  138.7027  159.7488 C.3     1  UNL1        0.0897
@<TRIPOS>BOND
     1    22    23    1
     2    23    15    1
     3    15    16   ar
     4    16    17   ar
     5    17    18   ar
     6    18    19   ar
     7     1    19    1
     8     1     2    1
     9     2     3   ar
    10     3     4   ar
    11     4     5   ar
    12     5     6   ar
    13     6     7    1
    14     6     8   ar
    15     8     9   ar
    16     9    10   ar
    17    10    11   ar
    18    11    12   ar
    19    12    13    1
    20    13    14    1
    21     1    24    1
    22    24    25    1
    23    24    37    1
    24    37    38    1
    25    38    39    1
    26    39    40    1
    27    39    41    1
    28    24    27    1
    29    27    28   ar
    30    28    29   ar
    31    29    33    1
    32    33    34    1
    33    29    30   ar
    34    30    31   ar
    35    31    35    1
    36    35    36    1
    37    31    32   ar
    38    19    20   ar
    39    20    21    1
    40    20    15   ar
    41    12     2   ar
    42    32    27   ar
    43    10     4   ar
    44    25    26    1
