@<TRIPOS>MOLECULE
*****
 28 31 0 0 0
SMALL
GASTEIGER

@<TRIPOS>ATOM
      1 C         141.8130  143.8903  161.3578 C.2     1  UNL1        0.1518
      2 N         143.1794  144.4011  161.7069 N.2     1  UNL1       -0.1775
      3 C         141.1416  142.8804  162.2407 C.ar    1  UNL1        0.0237
      4 C         141.3540  141.4151  162.0005 C.ar    1  UNL1        0.0030
      5 C         140.6827  140.4053  162.8834 C.ar    1  UNL1        0.0184
      6 C         139.7989  140.8609  164.0065 C.ar    1  UNL1        0.1056
      7 C         139.5864  142.3261  164.2467 C.ar    1  UNL1        0.0184
      8 C         140.2578  143.3359  163.3638 C.ar    1  UNL1        0.0030
      9 S         139.1275  139.8510  164.8895 S.O2    1  UNL1        0.0070
     10 O         137.7997  140.2117  164.2923 O.2     1  UNL1       -0.1687
     11 O         140.4554  139.4903  165.4866 O.2     1  UNL1       -0.1687
     12 C         138.4561  138.8412  165.7723 C.3     1  UNL1        0.1339
     13 C         138.1001  137.4168  166.0794 C.3     1  UNL1        0.0257
     14 C         137.6493  138.5165  166.9945 C.3     1  UNL1        0.0257
     15 N         143.8745  143.9021  162.9390 N.pl3   1  UNL1       -0.2327
     16 C         143.8111  144.5268  164.3012 C.3     1  UNL1        0.1110
     17 C         144.6524  143.7015  165.2292 C.3     1  UNL1        0.0250
     18 C         145.2357  142.5667  164.4405 C.3     1  UNL1        0.0250
     19 C         144.7549  142.6907  163.0250 C.3     1  UNL1        0.1110
     20 O         139.6520  144.1337  159.9361 O.2     1  UNL1       -0.2681
     21 C         141.1179  144.3893  160.1258 C.2     1  UNL1        0.2702
     22 N         141.8887  145.1438  159.0833 N.am    1  UNL1       -0.2582
     23 H         142.8508  145.3115  159.2078 H       1  UNL1        0.1571
     24 C         141.1936  145.6428  157.8513 C.ar    1  UNL1        0.1850
     25 N         139.9463  146.4753  157.8188 N.ar    1  UNL1       -0.2007
     26 C         139.6056  146.7439  156.3829 C.ar    1  UNL1        0.2082
     27 N         140.6424  146.0774  155.5280 N.ar    1  UNL1       -0.1840
     28 S         141.6239  145.3969  156.4355 S.2     1  UNL1        0.0497
@<TRIPOS>BOND
     1    20    21    2
     2    21    22   am
     3    22    24    1
     4    24    25   ar
     5    25    26   ar
     6    26    27   ar
     7    27    28   ar
     8    21     1    1
     9     1     2    2
    10     2    15    1
    11    15    16    1
    12    16    17    1
    13    17    18    1
    14    18    19    1
    15     1     3    1
    16     3     4   ar
    17     4     5   ar
    18     5     6   ar
    19     6     9    1
    20     9    10    2
    21     9    11    2
    22     9    12    1
    23    12    13    1
    24    13    14    1
    25     6     7   ar
    26     7     8   ar
    27    28    24   ar
    28    19    15    1
    29     8     3   ar
    30    14    12    1
    31    22    23    1
@<TRIPOS>MOLECULE
*****
 28 31 0 0 0
SMALL
GASTEIGER

@<TRIPOS>ATOM
      1 C         142.4259  139.7382  169.9460 C.2     1  UNL1        0.1518
      2 N         142.3289  140.8241  170.9763 N.2     1  UNL1       -0.1775
      3 C         141.6253  139.8310  168.6809 C.ar    1  UNL1        0.0237
      4 C         142.3225  139.9851  167.3617 C.ar    1  UNL1        0.0030
      5 C         141.5219  140.0779  166.0967 C.ar    1  UNL1        0.0184
      6 C         140.0242  140.0165  166.1507 C.ar    1  UNL1        0.1056
      7 C         139.3270  139.8624  167.4699 C.ar    1  UNL1        0.0184
      8 C         140.1276  139.7696  168.7349 C.ar    1  UNL1        0.0030
      9 S         139.2236  140.1093  164.8856 S.O2    1  UNL1        0.0070
     10 O         138.0297  139.5488  165.6000 O.2     1  UNL1       -0.1687
     11 O         140.4174  140.6698  164.1712 O.2     1  UNL1       -0.1687
     12 C         138.4230  140.2020  163.6205 C.3     1  UNL1        0.1339
     13 C         137.5112  140.9744  162.7139 C.3     1  UNL1        0.0257
     14 C         137.9481  139.5902  162.3360 C.3     1  UNL1        0.0257
     15 N         141.4312  142.0027  170.7414 N.pl3   1  UNL1       -0.2327
     16 C         140.0350  142.1659  171.2649 C.3     1  UNL1        0.1110
     17 C         139.5131  143.4891  170.7888 C.3     1  UNL1        0.0250
     18 C         140.5868  144.1438  169.9710 C.3     1  UNL1        0.0250
     19 C         141.7722  143.2252  169.9418 C.3     1  UNL1        0.1110
     20 O         143.4886  137.5183  169.1139 O.2     1  UNL1       -0.2681
     21 C         143.3235  138.5596  170.1808 C.2     1  UNL1        0.2702
     22 N         144.0561  138.4224  171.4826 N.am    1  UNL1       -0.2582
     23 H         143.9478  139.1059  172.1829 H       1  UNL1        0.1571
     24 C         144.9537  137.2438  171.7174 C.ar    1  UNL1        0.1850
     25 N         146.4468  137.2862  171.8547 N.ar    1  UNL1       -0.2007
     26 C         146.9317  135.8845  172.0783 C.ar    1  UNL1        0.2082
     27 N         145.7383  134.9757  172.0793 N.ar    1  UNL1       -0.1840
     28 S         144.5158  135.8158  171.8562 S.2     1  UNL1        0.0497
@<TRIPOS>BOND
     1    20    21    2
     2    21    22   am
     3    22    24    1
     4    24    25   ar
     5    25    26   ar
     6    26    27   ar
     7    27    28   ar
     8    21     1    1
     9     1     2    2
    10     2    15    1
    11    15    16    1
    12    16    17    1
    13    17    18    1
    14    18    19    1
    15     1     3    1
    16     3     4   ar
    17     4     5   ar
    18     5     6   ar
    19     6     9    1
    20     9    10    2
    21     9    11    2
    22     9    12    1
    23    12    13    1
    24    13    14    1
    25     6     7   ar
    26     7     8   ar
    27    28    24   ar
    28    19    15    1
    29     8     3   ar
    30    14    12    1
    31    22    23    1
@<TRIPOS>MOLECULE
*****
 28 31 0 0 0
SMALL
GASTEIGER

@<TRIPOS>ATOM
      1 C         143.7458  141.0038  161.0824 C.2     1  UNL1        0.1518
      2 N         144.6194  142.1745  161.4232 N.2     1  UNL1       -0.1775
      3 C         142.7223  140.5201  162.0665 C.ar    1  UNL1        0.0237
      4 C         143.0730  139.4354  163.0414 C.ar    1  UNL1        0.0030
      5 C         142.0495  138.9517  164.0254 C.ar    1  UNL1        0.0184
      6 C         140.6752  139.5527  164.0347 C.ar    1  UNL1        0.1056
      7 C         140.3245  140.6374  163.0598 C.ar    1  UNL1        0.0184
      8 C         141.3480  141.1211  162.0758 C.ar    1  UNL1        0.0030
      9 S         139.6517  139.0690  165.0188 S.O2    1  UNL1        0.0070
     10 O         138.6131  139.0649  163.9365 O.2     1  UNL1       -0.1687
     11 O         140.6902  139.0731  166.1010 O.2     1  UNL1       -0.1687
     12 C         138.6282  138.5854  166.0028 C.3     1  UNL1        0.1339
     13 C         137.7190  138.8483  167.1666 C.3     1  UNL1        0.0257
     14 C         137.7645  137.4846  166.5435 C.3     1  UNL1        0.0257
     15 N         144.4694  142.8616  162.7482 N.pl3   1  UNL1       -0.2327
     16 C         143.7673  144.1647  162.9912 C.3     1  UNL1        0.1110
     17 C         143.8592  144.4746  164.4560 C.3     1  UNL1        0.0250
     18 C         144.6180  143.3630  165.1183 C.3     1  UNL1        0.0250
     19 C         144.9951  142.3662  164.0628 C.3     1  UNL1        0.1110
     20 O         144.0037  138.8219  159.6958 O.2     1  UNL1       -0.2681
     21 C         143.8958  140.3167  159.7575 C.2     1  UNL1        0.2702
     22 N         143.9378  141.1245  158.4942 N.am    1  UNL1       -0.2582
     23 H         143.8670  142.1056  158.5347 H       1  UNL1        0.1571
     24 C         144.0878  140.4374  157.1693 C.ar    1  UNL1        0.1850
     25 N         145.3784  140.1873  156.4469 N.ar    1  UNL1       -0.2007
     26 C         145.0617  139.4751  155.1653 C.ar    1  UNL1        0.2082
     27 N         143.5754  139.2851  155.0956 N.ar    1  UNL1       -0.1840
     28 S         142.9735  139.8798  156.3341 S.2     1  UNL1        0.0497
@<TRIPOS>BOND
     1    20    21    2
     2    21    22   am
     3    22    24    1
     4    24    25   ar
     5    25    26   ar
     6    26    27   ar
     7    27    28   ar
     8    21     1    1
     9     1     2    2
    10     2    15    1
    11    15    16    1
    12    16    17    1
    13    17    18    1
    14    18    19    1
    15     1     3    1
    16     3     4   ar
    17     4     5   ar
    18     5     6   ar
    19     6     9    1
    20     9    10    2
    21     9    11    2
    22     9    12    1
    23    12    13    1
    24    13    14    1
    25     6     7   ar
    26     7     8   ar
    27    28    24   ar
    28    19    15    1
    29     8     3   ar
    30    14    12    1
    31    22    23    1
@<TRIPOS>MOLECULE
*****
 28 31 0 0 0
SMALL
GASTEIGER

@<TRIPOS>ATOM
      1 C         140.5401  141.1321  165.3580 C.2     1  UNL1        0.1518
      2 N         140.1731  139.6788  165.3021 N.2     1  UNL1       -0.1775
      3 C         140.6252  141.9334  164.0927 C.ar    1  UNL1        0.0237
      4 C         141.9626  142.2327  163.4830 C.ar    1  UNL1        0.0030
      5 C         142.0476  143.0339  162.2178 C.ar    1  UNL1        0.0184
      6 C         140.7952  143.5358  161.5623 C.ar    1  UNL1        0.1056
      7 C         139.4578  143.2365  162.1720 C.ar    1  UNL1        0.0184
      8 C         139.3728  142.4352  163.4372 C.ar    1  UNL1        0.0030
      9 S         140.8803  144.3371  160.2971 S.O2    1  UNL1        0.0070
     10 O         142.3370  144.5868  160.5532 O.2     1  UNL1       -0.1687
     11 O         139.4236  144.0874  160.0410 O.2     1  UNL1       -0.1687
     12 C         140.9654  145.1384  159.0319 C.3     1  UNL1        0.1339
     13 C         140.3063  145.9845  157.9833 C.3     1  UNL1        0.0257
     14 C         141.7720  145.6800  157.8891 C.3     1  UNL1        0.0257
     15 N         139.8911  139.0267  163.9809 N.pl3   1  UNL1       -0.2327
     16 C         140.9163  138.4997  163.0211 C.3     1  UNL1        0.1110
     17 C         140.1932  137.9345  161.8347 C.3     1  UNL1        0.0250
     18 C         138.7210  138.1122  162.0612 C.3     1  UNL1        0.0250
     19 C         138.5344  138.7873  163.3876 C.3     1  UNL1        0.1110
     20 O         140.2599  143.1417  166.9806 O.2     1  UNL1       -0.2681
     21 C         140.8221  141.7841  166.6790 C.2     1  UNL1        0.2702
     22 N         141.6664  141.0786  167.6987 N.am    1  UNL1       -0.2582
     23 H         142.0354  140.1876  167.5008 H       1  UNL1        0.1571
     24 C         141.9483  141.7307  169.0197 C.ar    1  UNL1        0.1850
     25 N         143.0349  142.7269  169.2972 N.ar    1  UNL1       -0.2007
     26 C         142.9514  143.1129  170.7442 C.ar    1  UNL1        0.2082
     27 N         141.8132  142.3553  171.3612 N.ar    1  UNL1       -0.1840
     28 S         141.1933  141.5010  170.2954 S.2     1  UNL1        0.0497
@<TRIPOS>BOND
     1    20    21    2
     2    21    22   am
     3    22    24    1
     4    24    25   ar
     5    25    26   ar
     6    26    27   ar
     7    27    28   ar
     8    21     1    1
     9     1     2    2
    10     2    15    1
    11    15    16    1
    12    16    17    1
    13    17    18    1
    14    18    19    1
    15     1     3    1
    16     3     4   ar
    17     4     5   ar
    18     5     6   ar
    19     6     9    1
    20     9    10    2
    21     9    11    2
    22     9    12    1
    23    12    13    1
    24    13    14    1
    25     6     7   ar
    26     7     8   ar
    27    28    24   ar
    28    19    15    1
    29     8     3   ar
    30    14    12    1
    31    22    23    1
@<TRIPOS>MOLECULE
*****
 28 31 0 0 0
SMALL
GASTEIGER

@<TRIPOS>ATOM
      1 C         142.0250  142.4148  162.2916 C.2     1  UNL1        0.1518
      2 N         140.8915  143.3338  161.9441 N.2     1  UNL1       -0.1775
      3 C         142.1463  141.8660  163.6823 C.ar    1  UNL1        0.0237
      4 C         142.9396  142.6097  164.7155 C.ar    1  UNL1        0.0030
      5 C         143.0608  142.0609  166.1062 C.ar    1  UNL1        0.0184
      6 C         142.3887  140.7684  166.4637 C.ar    1  UNL1        0.1056
      7 C         141.5954  140.0247  165.4305 C.ar    1  UNL1        0.0184
      8 C         141.4742  140.5735  164.0398 C.ar    1  UNL1        0.0030
      9 S         142.5099  140.2196  167.8545 S.O2    1  UNL1        0.0070
     10 O         143.3862  139.1151  167.3422 O.2     1  UNL1       -0.1687
     11 O         141.6337  141.3240  168.3667 O.2     1  UNL1       -0.1687
     12 C         142.6312  139.6708  169.2452 C.3     1  UNL1        0.1339
     13 C         142.9592  139.8679  170.6955 C.3     1  UNL1        0.0257
     14 C         142.5132  138.5229  170.2036 C.3     1  UNL1        0.0257
     15 N         139.8793  143.7039  162.9874 N.pl3   1  UNL1       -0.2327
     16 C         138.5382  143.0607  163.1821 C.3     1  UNL1        0.1110
     17 C         137.8606  143.7415  164.3342 C.3     1  UNL1        0.0250
     18 C         138.7828  144.8055  164.8515 C.3     1  UNL1        0.0250
     19 C         140.0304  144.7822  164.0191 C.3     1  UNL1        0.1110
     20 O         144.4437  141.7142  161.6518 O.2     1  UNL1       -0.2681
     21 C         143.0372  142.0447  161.2483 C.2     1  UNL1        0.2702
     22 N         142.6431  142.0050  159.8015 N.am    1  UNL1       -0.2582
     23 H         141.7200  142.2219  159.5367 H       1  UNL1        0.1571
     24 C         143.6553  141.6349  158.7583 C.ar    1  UNL1        0.1850
     25 N         144.6734  142.5546  158.1522 N.ar    1  UNL1       -0.2007
     26 C         145.4745  141.7682  157.1573 C.ar    1  UNL1        0.2082
     27 N         144.9514  140.3623  157.1485 N.ar    1  UNL1       -0.1840
     28 S         143.8271  140.2800  158.1380 S.2     1  UNL1        0.0497
@<TRIPOS>BOND
     1    20    21    2
     2    21    22   am
     3    22    24    1
     4    24    25   ar
     5    25    26   ar
     6    26    27   ar
     7    27    28   ar
     8    21     1    1
     9     1     2    2
    10     2    15    1
    11    15    16    1
    12    16    17    1
    13    17    18    1
    14    18    19    1
    15     1     3    1
    16     3     4   ar
    17     4     5   ar
    18     5     6   ar
    19     6     9    1
    20     9    10    2
    21     9    11    2
    22     9    12    1
    23    12    13    1
    24    13    14    1
    25     6     7   ar
    26     7     8   ar
    27    28    24   ar
    28    19    15    1
    29     8     3   ar
    30    14    12    1
    31    22    23    1
@<TRIPOS>MOLECULE
*****
 28 31 0 0 0
SMALL
GASTEIGER

@<TRIPOS>ATOM
      1 C         143.4140  140.1684  160.3622 C.2     1  UNL1        0.1518
      2 N         144.4486  141.2259  160.6096 N.2     1  UNL1       -0.1775
      3 C         142.4504  139.7931  161.4489 C.ar    1  UNL1        0.0237
      4 C         142.7746  138.6643  162.3819 C.ar    1  UNL1        0.0030
      5 C         141.8110  138.2891  163.4685 C.ar    1  UNL1        0.0184
      6 C         140.5233  139.0428  163.6221 C.ar    1  UNL1        0.1056
      7 C         140.1991  140.1717  162.6891 C.ar    1  UNL1        0.0184
      8 C         141.1627  140.5468  161.6025 C.ar    1  UNL1        0.0030
      9 S         139.5597  138.6676  164.7087 S.O2    1  UNL1        0.0070
     10 O         140.7073  138.2700  165.5890 O.2     1  UNL1       -0.1687
     11 O         138.4121  139.0651  163.8285 O.2     1  UNL1       -0.1687
     12 C         138.5962  138.2923  165.7954 C.3     1  UNL1        0.1339
     13 C         137.7638  137.2579  166.4933 C.3     1  UNL1        0.0257
     14 C         137.7596  138.6769  166.9796 C.3     1  UNL1        0.0257
     15 N         144.5196  141.9082  161.9436 N.pl3   1  UNL1       -0.2327
     16 C         143.8364  143.1908  162.3154 C.3     1  UNL1        0.1110
     17 C         144.1809  143.5030  163.7415 C.3     1  UNL1        0.0250
     18 C         145.0770  142.4133  164.2512 C.3     1  UNL1        0.0250
     19 C         145.2864  141.4277  163.1400 C.3     1  UNL1        0.1110
     20 O         144.2668  139.9029  157.9225 O.2     1  UNL1       -0.2681
     21 C         143.3430  139.4861  159.0283 C.2     1  UNL1        0.2702
     22 N         142.3481  138.3868  158.8002 N.am    1  UNL1       -0.2582
     23 H         141.7418  138.1132  159.5260 H       1  UNL1        0.1571
     24 C         142.2771  137.7045  157.4663 C.ar    1  UNL1        0.1850
     25 N         142.9812  136.4357  157.0864 N.ar    1  UNL1       -0.2007
     26 C         142.6288  136.1182  155.6634 C.ar    1  UNL1        0.2082
     27 N         141.7068  137.1908  155.1638 N.ar    1  UNL1       -0.1840
     28 S         141.4894  138.1712  156.2780 S.2     1  UNL1        0.0497
@<TRIPOS>BOND
     1    20    21    2
     2    21    22   am
     3    22    24    1
     4    24    25   ar
     5    25    26   ar
     6    26    27   ar
     7    27    28   ar
     8    21     1    1
     9     1     2    2
    10     2    15    1
    11    15    16    1
    12    16    17    1
    13    17    18    1
    14    18    19    1
    15     1     3    1
    16     3     4   ar
    17     4     5   ar
    18     5     6   ar
    19     6     9    1
    20     9    10    2
    21     9    11    2
    22     9    12    1
    23    12    13    1
    24    13    14    1
    25     6     7   ar
    26     7     8   ar
    27    28    24   ar
    28    19    15    1
    29     8     3   ar
    30    14    12    1
    31    22    23    1
@<TRIPOS>MOLECULE
*****
 28 31 0 0 0
SMALL
GASTEIGER

@<TRIPOS>ATOM
      1 C         141.0119  141.8443  162.1277 C.2     1  UNL1        0.1518
      2 N         140.6501  140.5122  161.5406 N.2     1  UNL1       -0.1775
      3 C         141.2370  141.9767  163.6048 C.ar    1  UNL1        0.0237
      4 C         140.0968  142.3447  164.5073 C.ar    1  UNL1        0.0030
      5 C         140.3220  142.4771  165.9843 C.ar    1  UNL1        0.0184
      6 C         141.6874  142.2414  166.5589 C.ar    1  UNL1        0.1056
      7 C         142.8276  141.8734  165.6565 C.ar    1  UNL1        0.0184
      8 C         142.6024  141.7410  164.1794 C.ar    1  UNL1        0.0030
      9 S         141.9125  142.3738  168.0361 S.O2    1  UNL1        0.0070
     10 O         143.3729  142.0940  167.8385 O.2     1  UNL1       -0.1687
     11 O         140.4522  142.6536  168.2336 O.2     1  UNL1       -0.1687
     12 C         142.1377  142.5062  169.5131 C.3     1  UNL1        0.1339
     13 C         142.7311  143.2454  170.6756 C.3     1  UNL1        0.0257
     14 C         141.9344  141.9962  170.9090 C.3     1  UNL1        0.0257
     15 N         140.5134  139.3125  162.4307 N.pl3   1  UNL1       -0.2327
     16 C         141.5868  138.3075  162.7268 C.3     1  UNL1        0.1110
     17 C         141.0162  137.2811  163.6600 C.3     1  UNL1        0.0250
     18 C         139.5900  137.6518  163.9406 C.3     1  UNL1        0.0250
     19 C         139.2793  138.9072  163.1809 C.3     1  UNL1        0.1110
     20 O         141.3376  144.4055  161.8380 O.2     1  UNL1       -0.2681
     21 C         141.1485  143.0439  161.2377 C.2     1  UNL1        0.2702
     22 N         141.0961  142.8821  159.7473 N.am    1  UNL1       -0.2582
     23 H         140.9720  141.9884  159.3533 H       1  UNL1        0.1571
     24 C         141.2328  144.0817  158.8574 C.ar    1  UNL1        0.1850
     25 N         142.5215  144.6942  158.3950 N.ar    1  UNL1       -0.2007
     26 C         142.1899  145.8706  157.5253 C.ar    1  UNL1        0.2082
     27 N         140.6962  145.9851  157.4503 N.ar    1  UNL1       -0.1840
     28 S         140.1046  144.8795  158.2735 S.2     1  UNL1        0.0497
@<TRIPOS>BOND
     1    20    21    2
     2    21    22   am
     3    22    24    1
     4    24    25   ar
     5    25    26   ar
     6    26    27   ar
     7    27    28   ar
     8    21     1    1
     9     1     2    2
    10     2    15    1
    11    15    16    1
    12    16    17    1
    13    17    18    1
    14    18    19    1
    15     1     3    1
    16     3     4   ar
    17     4     5   ar
    18     5     6   ar
    19     6     9    1
    20     9    10    2
    21     9    11    2
    22     9    12    1
    23    12    13    1
    24    13    14    1
    25     6     7   ar
    26     7     8   ar
    27    28    24   ar
    28    19    15    1
    29     8     3   ar
    30    14    12    1
    31    22    23    1
@<TRIPOS>MOLECULE
*****
 28 31 0 0 0
SMALL
GASTEIGER

@<TRIPOS>ATOM
      1 C         139.9930  140.4514  161.4350 C.2     1  UNL1        0.1518
      2 N         139.2563  141.6677  160.9576 N.2     1  UNL1       -0.1775
      3 C         140.4139  140.3449  162.8708 C.ar    1  UNL1        0.0237
      4 C         141.6784  141.0064  163.3328 C.ar    1  UNL1        0.0030
      5 C         142.0991  140.8999  164.7686 C.ar    1  UNL1        0.0184
      6 C         141.2554  140.1319  165.7424 C.ar    1  UNL1        0.1056
      7 C         139.9909  139.4704  165.2804 C.ar    1  UNL1        0.0184
      8 C         139.5702  139.5769  163.8446 C.ar    1  UNL1        0.0030
      9 S         141.6763  140.0253  167.1783 S.O2    1  UNL1        0.0070
     10 O         142.8786  139.2286  166.7667 O.2     1  UNL1       -0.1687
     11 O         140.4739  140.8221  167.5898 O.2     1  UNL1       -0.1687
     12 C         142.0971  139.9188  168.6140 C.3     1  UNL1        0.1339
     13 C         142.0317  139.2174  169.9383 C.3     1  UNL1        0.0257
     14 C         142.8915  140.4358  169.7767 C.3     1  UNL1        0.0257
     15 N         138.9404  142.7775  161.9161 N.pl3   1  UNL1       -0.2327
     16 C         137.7605  142.8350  162.8405 C.3     1  UNL1        0.1110
     17 C         137.8399  144.1177  163.6142 C.3     1  UNL1        0.0250
     18 C         139.0689  144.8529  163.1679 C.3     1  UNL1        0.0250
     19 C         139.7490  144.0246  162.1185 C.3     1  UNL1        0.1110
     20 O         139.6621  137.9988  160.6445 O.2     1  UNL1       -0.2681
     21 C         140.3089  139.3417  160.4765 C.2     1  UNL1        0.2702
     22 N         141.2717  139.5748  159.3501 N.am    1  UNL1       -0.2582
     23 H         141.6963  140.4562  159.2399 H       1  UNL1        0.1571
     24 C         141.5876  138.4650  158.3917 C.ar    1  UNL1        0.1850
     25 N         142.8465  137.6497  158.3708 N.ar    1  UNL1       -0.2007
     26 C         142.7370  136.6565  157.2521 C.ar    1  UNL1        0.2082
     27 N         141.4104  136.8580  156.5815 N.ar    1  UNL1       -0.1840
     28 S         140.7001  137.9757  157.2858 S.2     1  UNL1        0.0497
@<TRIPOS>BOND
     1    20    21    2
     2    21    22   am
     3    22    24    1
     4    24    25   ar
     5    25    26   ar
     6    26    27   ar
     7    27    28   ar
     8    21     1    1
     9     1     2    2
    10     2    15    1
    11    15    16    1
    12    16    17    1
    13    17    18    1
    14    18    19    1
    15     1     3    1
    16     3     4   ar
    17     4     5   ar
    18     5     6   ar
    19     6     9    1
    20     9    10    2
    21     9    11    2
    22     9    12    1
    23    12    13    1
    24    13    14    1
    25     6     7   ar
    26     7     8   ar
    27    28    24   ar
    28    19    15    1
    29     8     3   ar
    30    14    12    1
    31    22    23    1
@<TRIPOS>MOLECULE
*****
 28 31 0 0 0
SMALL
GASTEIGER

@<TRIPOS>ATOM
      1 C         142.1513  140.8367  161.6315 C.2     1  UNL1        0.1518
      2 N         142.3416  142.2309  161.1118 N.2     1  UNL1       -0.1775
      3 C         142.2405  140.5667  163.1043 C.ar    1  UNL1        0.0237
      4 C         141.0151  140.6761  163.9624 C.ar    1  UNL1        0.0030
      5 C         141.1043  140.4061  165.4352 C.ar    1  UNL1        0.0184
      6 C         142.4189  140.0266  166.0499 C.ar    1  UNL1        0.1056
      7 C         143.6443  139.9171  165.1918 C.ar    1  UNL1        0.0184
      8 C         143.5551  140.1872  163.7190 C.ar    1  UNL1        0.0030
      9 S         142.5081  139.7566  167.5227 S.O2    1  UNL1        0.0070
     10 O         143.4540  138.6231  167.2576 O.2     1  UNL1       -0.1687
     11 O         141.5621  140.8900  167.7878 O.2     1  UNL1       -0.1687
     12 C         142.5972  139.4865  168.9955 C.3     1  UNL1        0.1339
     13 C         142.6701  138.5149  170.1359 C.3     1  UNL1        0.0257
     14 C         142.6789  139.9904  170.4059 C.3     1  UNL1        0.0257
     15 N         142.6209  143.3550  162.0649 N.pl3   1  UNL1       -0.2327
     16 C         143.9773  143.8339  162.4902 C.3     1  UNL1        0.1110
     17 C         143.7876  144.9724  163.4482 C.3     1  UNL1        0.0250
     18 C         142.3139  145.1972  163.6149 C.3     1  UNL1        0.0250
     19 C         141.5929  144.1976  162.7600 C.3     1  UNL1        0.1110
     20 O         141.6397  138.3261  161.2015 O.2     1  UNL1       -0.2681
     21 C         141.8720  139.7126  160.6785 C.2     1  UNL1        0.2702
     22 N         141.8249  139.9750  159.2023 N.am    1  UNL1       -0.2582
     23 H         141.9774  140.8851  158.8590 H       1  UNL1        0.1571
     24 C         141.5456  138.8509  158.2492 C.ar    1  UNL1        0.1850
     25 N         140.2163  138.5253  157.6354 N.ar    1  UNL1       -0.2007
     26 C         140.3956  137.3282  156.7495 C.ar    1  UNL1        0.2082
     27 N         141.8358  136.9140  156.8158 N.ar    1  UNL1       -0.1840
     28 S         142.5465  137.8551  157.7427 S.2     1  UNL1        0.0497
@<TRIPOS>BOND
     1    20    21    2
     2    21    22   am
     3    22    24    1
     4    24    25   ar
     5    25    26   ar
     6    26    27   ar
     7    27    28   ar
     8    21     1    1
     9     1     2    2
    10     2    15    1
    11    15    16    1
    12    16    17    1
    13    17    18    1
    14    18    19    1
    15     1     3    1
    16     3     4   ar
    17     4     5   ar
    18     5     6   ar
    19     6     9    1
    20     9    10    2
    21     9    11    2
    22     9    12    1
    23    12    13    1
    24    13    14    1
    25     6     7   ar
    26     7     8   ar
    27    28    24   ar
    28    19    15    1
    29     8     3   ar
    30    14    12    1
    31    22    23    1
