@<TRIPOS>MOLECULE
*****
 27 30 0 0 0
SMALL
GASTEIGER

@<TRIPOS>ATOM
      1 C         140.3590  145.8936  157.8368 C.3     1  UNL1        0.0523
      2 C         140.8285  145.2815  159.1232 C.ar    1  UNL1        0.0653
      3 C         139.9511  145.3258  160.3390 C.ar    1  UNL1        0.0490
      4 C         140.4206  144.7136  161.6254 C.ar    1  UNL1        0.1342
      5 N         141.7675  144.0571  161.6960 N.ar    1  UNL1       -0.1816
      6 N         142.4937  143.3742  162.8168 N.ar    1  UNL1       -0.1409
      7 C         143.8199  142.9079  162.2936 C.ar    1  UNL1        0.2227
      8 N         143.9134  143.3026  160.8495 N.ar    1  UNL1       -0.1880
      9 C         142.6449  144.0128  160.4801 C.ar    1  UNL1        0.2552
     10 N         142.1754  144.6250  159.1938 N.ar    1  UNL1       -0.2142
     11 C         144.8687  142.1754  163.0771 C.3     1  UNL1        0.3163
     12 C         145.9173  141.4430  163.8606 C.3     1  UNL1        0.0805
     13 F         145.0387  141.2070  161.9443 F       1  UNL1       -0.1962
     14 F         144.6986  143.1438  164.2099 F       1  UNL1       -0.1962
     15 N         139.5433  144.7578  162.8412 N.pl3   1  UNL1       -0.3192
     16 H         139.1938  145.6194  163.1650 H       1  UNL1        0.1482
     17 C         139.1983  143.4894  163.5639 C.3     1  UNL1        0.0750
     18 C         138.2469  142.5087  162.9451 C.3     1  UNL1        0.0245
     19 C         137.9020  141.2403  163.6677 C.3     1  UNL1        0.0277
     20 C         138.5086  140.9526  165.0091 C.ar    1  UNL1       -0.0260
     21 C         138.1637  139.6841  165.7317 C.ar    1  UNL1       -0.0041
     22 C         138.7702  139.3964  167.0731 C.ar    1  UNL1        0.0064
     23 C         139.7217  140.3772  167.6918 C.ar    1  UNL1        0.0342
     24 BR        140.3283  140.0895  169.0332 Br      1  UNL1       -0.0490
     25 C         140.0666  141.6456  166.9692 C.ar    1  UNL1        0.0022
     26 C         139.4600  141.9333  165.6278 C.ar    1  UNL1       -0.0240
     27 C         139.8049  143.2017  164.9052 C.3     1  UNL1        0.0455
@<TRIPOS>BOND
     1     1     2    1
     2     2     3   ar
     3     3     4   ar
     4     4    15    1
     5    15    17    1
     6    17    18    1
     7    18    19    1
     8    19    20    1
     9    20    21   ar
    10    21    22   ar
    11    22    23   ar
    12    23    24    1
    13    23    25   ar
    14    25    26   ar
    15    26    27    1
    16     4     5   ar
    17     5     6   ar
    18     6     7   ar
    19     7    11    1
    20    11    12    1
    21    11    13    1
    22    11    14    1
    23     7     8   ar
    24     8     9   ar
    25     9    10   ar
    26    10     2   ar
    27    27    17    1
    28     9     5   ar
    29    26    20   ar
    30    15    16    1
@<TRIPOS>MOLECULE
*****
 27 30 0 0 0
SMALL
GASTEIGER

@<TRIPOS>ATOM
      1 C         141.1614  138.6992  158.8073 C.3     1  UNL1        0.0523
      2 C         140.7514  139.0468  160.2077 C.ar    1  UNL1        0.0653
      3 C         141.1185  140.3806  160.7875 C.ar    1  UNL1        0.0490
      4 C         140.7084  140.7282  162.1879 C.ar    1  UNL1        0.1342
      5 N         139.9313  139.7418  163.0085 N.ar    1  UNL1       -0.1816
      6 N         139.3929  139.8033  164.4072 N.ar    1  UNL1       -0.1409
      7 C         138.6931  138.5074  164.6918 C.ar    1  UNL1        0.2227
      8 N         138.7990  137.6451  163.4690 N.ar    1  UNL1       -0.1880
      9 C         139.5643  138.4080  162.4287 C.ar    1  UNL1        0.2552
     10 N         139.9743  138.0605  161.0283 N.ar    1  UNL1       -0.2142
     11 C         138.0077  138.1386  165.9741 C.3     1  UNL1        0.3163
     12 C         137.3223  137.7699  167.2564 C.3     1  UNL1        0.0805
     13 F         138.3651  136.6990  165.7512 F       1  UNL1       -0.1962
     14 F         137.6503  139.5783  166.1970 F       1  UNL1       -0.1962
     15 N         141.0754  142.0620  162.7677 N.pl3   1  UNL1       -0.3192
     16 H         140.9458  142.8815  162.2379 H       1  UNL1        0.1482
     17 C         141.6400  142.1471  164.1549 C.3     1  UNL1        0.0750
     18 C         143.1113  141.9592  164.3786 C.3     1  UNL1        0.0245
     19 C         143.6758  142.0444  165.7657 C.3     1  UNL1        0.0277
     20 C         142.7691  142.3173  166.9290 C.ar    1  UNL1       -0.0260
     21 C         143.3337  142.4024  168.3162 C.ar    1  UNL1       -0.0041
     22 C         142.4269  142.6753  169.4795 C.ar    1  UNL1        0.0064
     23 C         140.9556  142.8632  169.2557 C.ar    1  UNL1        0.0342
     24 BR        140.0489  143.1361  170.4190 Br      1  UNL1       -0.0490
     25 C         140.3911  142.7780  167.8686 C.ar    1  UNL1        0.0022
     26 C         141.2978  142.5051  166.7053 C.ar    1  UNL1       -0.0240
     27 C         140.7333  142.4200  165.3182 C.3     1  UNL1        0.0455
@<TRIPOS>BOND
     1     1     2    1
     2     2     3   ar
     3     3     4   ar
     4     4    15    1
     5    15    17    1
     6    17    18    1
     7    18    19    1
     8    19    20    1
     9    20    21   ar
    10    21    22   ar
    11    22    23   ar
    12    23    24    1
    13    23    25   ar
    14    25    26   ar
    15    26    27    1
    16     4     5   ar
    17     5     6   ar
    18     6     7   ar
    19     7    11    1
    20    11    12    1
    21    11    13    1
    22    11    14    1
    23     7     8   ar
    24     8     9   ar
    25     9    10   ar
    26    10     2   ar
    27    27    17    1
    28     9     5   ar
    29    26    20   ar
    30    15    16    1
@<TRIPOS>MOLECULE
*****
 27 30 0 0 0
SMALL
GASTEIGER

@<TRIPOS>ATOM
      1 C         142.8907  138.2606  157.2320 C.3     1  UNL1        0.0523
      2 C         142.9614  138.9223  158.5763 C.ar    1  UNL1        0.0653
      3 C         142.8789  138.0949  159.8248 C.ar    1  UNL1        0.0490
      4 C         142.9496  138.7566  161.1691 C.ar    1  UNL1        0.1342
      5 N         143.1029  140.2457  161.2650 N.ar    1  UNL1       -0.1816
      6 N         143.2003  141.1709  162.4415 N.ar    1  UNL1       -0.1409
      7 C         143.3432  142.5702  161.9202 C.ar    1  UNL1        0.2227
      8 N         143.3340  142.5097  160.4215 N.ar    1  UNL1       -0.1880
      9 C         143.1854  141.0730  160.0165 C.ar    1  UNL1        0.2552
     10 N         143.1147  140.4113  158.6722 N.ar    1  UNL1       -0.2142
     11 C         143.4725  143.8120  162.7518 C.3     1  UNL1        0.3163
     12 C         143.6018  145.0537  163.5833 C.3     1  UNL1        0.0805
     13 F         144.8223  144.0731  162.1520 F       1  UNL1       -0.1962
     14 F         142.1227  143.5509  163.3515 F       1  UNL1       -0.1962
     15 N         142.8670  137.9293  162.4176 N.pl3   1  UNL1       -0.3192
     16 H         143.5882  137.2961  162.6371 H       1  UNL1        0.1482
     17 C         141.6856  138.0667  163.3316 C.3     1  UNL1        0.0750
     18 C         140.3669  137.4630  162.9488 C.3     1  UNL1        0.0245
     19 C         139.1856  137.6004  163.8628 C.3     1  UNL1        0.0277
     20 C         139.3229  138.3415  165.1597 C.ar    1  UNL1       -0.0260
     21 C         138.1414  138.4789  166.0738 C.ar    1  UNL1       -0.0041
     22 C         138.2788  139.2200  167.3706 C.ar    1  UNL1        0.0064
     23 C         139.5975  139.8237  167.7535 C.ar    1  UNL1        0.0342
     24 BR        139.7349  140.5648  169.0503 Br      1  UNL1       -0.0490
     25 C         140.7789  139.6863  166.8394 C.ar    1  UNL1        0.0022
     26 C         140.6415  138.9452  165.5425 C.ar    1  UNL1       -0.0240
     27 C         141.8229  138.8078  164.6285 C.3     1  UNL1        0.0455
@<TRIPOS>BOND
     1     1     2    1
     2     2     3   ar
     3     3     4   ar
     4     4    15    1
     5    15    17    1
     6    17    18    1
     7    18    19    1
     8    19    20    1
     9    20    21   ar
    10    21    22   ar
    11    22    23   ar
    12    23    24    1
    13    23    25   ar
    14    25    26   ar
    15    26    27    1
    16     4     5   ar
    17     5     6   ar
    18     6     7   ar
    19     7    11    1
    20    11    12    1
    21    11    13    1
    22    11    14    1
    23     7     8   ar
    24     8     9   ar
    25     9    10   ar
    26    10     2   ar
    27    27    17    1
    28     9     5   ar
    29    26    20   ar
    30    15    16    1
@<TRIPOS>MOLECULE
*****
 27 30 0 0 0
SMALL
GASTEIGER

@<TRIPOS>ATOM
      1 C         139.5741  140.3949  170.4996 C.3     1  UNL1        0.0523
      2 C         139.6772  140.3999  169.0032 C.ar    1  UNL1        0.0653
      3 C         140.6065  141.3581  168.3186 C.ar    1  UNL1        0.0490
      4 C         140.7096  141.3631  166.8222 C.ar    1  UNL1        0.1342
      5 N         139.8835  140.4099  166.0103 N.ar    1  UNL1       -0.1816
      6 N         139.7738  140.1854  164.5313 N.ar    1  UNL1       -0.1409
      7 C         138.7767  139.0885  164.3017 C.ar    1  UNL1        0.2227
      8 N         138.2702  138.6352  165.6389 N.ar    1  UNL1       -0.1880
      9 C         138.9543  139.4518  166.6948 C.ar    1  UNL1        0.2552
     10 N         138.8512  139.4468  168.1913 N.ar    1  UNL1       -0.2142
     11 C         138.3593  138.5411  162.9690 C.3     1  UNL1        0.3163
     12 C         137.9419  137.9938  161.6362 C.3     1  UNL1        0.0805
     13 F         139.1337  137.2859  163.2419 F       1  UNL1       -0.1962
     14 F         137.5848  139.7963  162.6960 F       1  UNL1       -0.1962
     15 N         141.6388  142.3211  166.1377 N.pl3   1  UNL1       -0.3192
     16 H         142.5770  142.3893  166.4280 H       1  UNL1        0.1482
     17 C         141.1385  143.1753  165.0106 C.3     1  UNL1        0.0750
     18 C         140.0087  144.1346  165.2410 C.3     1  UNL1        0.0245
     19 C         139.5085  144.9888  164.1140 C.3     1  UNL1        0.0277
     20 C         140.1381  144.8836  162.7566 C.ar    1  UNL1       -0.0260
     21 C         139.6378  145.7378  161.6296 C.ar    1  UNL1       -0.0041
     22 C         140.2674  145.6326  160.2722 C.ar    1  UNL1        0.0064
     23 C         141.3974  144.6733  160.0418 C.ar    1  UNL1        0.0342
     24 BR        142.0270  144.5681  158.6845 Br      1  UNL1       -0.0490
     25 C         141.8976  143.8192  161.1688 C.ar    1  UNL1        0.0022
     26 C         141.2680  143.9243  162.5262 C.ar    1  UNL1       -0.0240
     27 C         141.7682  143.0702  163.6532 C.3     1  UNL1        0.0455
@<TRIPOS>BOND
     1     1     2    1
     2     2     3   ar
     3     3     4   ar
     4     4    15    1
     5    15    17    1
     6    17    18    1
     7    18    19    1
     8    19    20    1
     9    20    21   ar
    10    21    22   ar
    11    22    23   ar
    12    23    24    1
    13    23    25   ar
    14    25    26   ar
    15    26    27    1
    16     4     5   ar
    17     5     6   ar
    18     6     7   ar
    19     7    11    1
    20    11    12    1
    21    11    13    1
    22    11    14    1
    23     7     8   ar
    24     8     9   ar
    25     9    10   ar
    26    10     2   ar
    27    27    17    1
    28     9     5   ar
    29    26    20   ar
    30    15    16    1
@<TRIPOS>MOLECULE
*****
 27 30 0 0 0
SMALL
GASTEIGER

@<TRIPOS>ATOM
      1 C         138.0700  141.1185  157.4568 C.3     1  UNL1        0.0523
      2 C         138.1516  141.2546  158.9484 C.ar    1  UNL1        0.0653
      3 C         138.2440  140.0297  159.8093 C.ar    1  UNL1        0.0490
      4 C         138.3256  140.1658  161.3009 C.ar    1  UNL1        0.1342
      5 N         138.3148  141.5268  161.9315 N.ar    1  UNL1       -0.1816
      6 N         138.3822  141.9703  163.3629 N.ar    1  UNL1       -0.1409
      7 C         138.3314  143.4693  163.3865 C.ar    1  UNL1        0.2227
      8 N         138.2327  143.9521  161.9698 N.ar    1  UNL1       -0.1880
      9 C         138.2224  142.7516  161.0706 C.ar    1  UNL1        0.2552
     10 N         138.1408  142.6155  159.5790 N.ar    1  UNL1       -0.2142
     11 C         138.3723  144.3336  164.6119 C.3     1  UNL1        0.3163
     12 C         138.4131  145.1979  165.8371 C.3     1  UNL1        0.0805
     13 F         139.6281  144.9836  164.1115 F       1  UNL1       -0.1962
     14 F         137.1165  143.6836  165.1122 F       1  UNL1       -0.1962
     15 N         138.4180  138.9410  162.1619 N.pl3   1  UNL1       -0.3192
     16 H         137.6978  138.2700  162.1422 H       1  UNL1        0.1482
     17 C         139.6076  138.7386  163.0529 C.3     1  UNL1        0.0750
     18 C         140.7711  137.9206  162.5762 C.3     1  UNL1        0.0245
     19 C         141.9606  137.7181  163.4672 C.3     1  UNL1        0.0277
     20 C         141.9868  138.3337  164.8349 C.ar    1  UNL1       -0.0260
     21 C         143.1764  138.1312  165.7259 C.ar    1  UNL1       -0.0041
     22 C         143.2025  138.7468  167.0935 C.ar    1  UNL1        0.0064
     23 C         142.0390  139.5648  167.5701 C.ar    1  UNL1        0.0342
     24 BR        142.0651  140.1803  168.9377 Br      1  UNL1       -0.0490
     25 C         140.8494  139.7672  166.6791 C.ar    1  UNL1        0.0022
     26 C         140.8233  139.1517  165.3115 C.ar    1  UNL1       -0.0240
     27 C         139.6338  139.3541  164.4205 C.3     1  UNL1        0.0455
@<TRIPOS>BOND
     1     1     2    1
     2     2     3   ar
     3     3     4   ar
     4     4    15    1
     5    15    17    1
     6    17    18    1
     7    18    19    1
     8    19    20    1
     9    20    21   ar
    10    21    22   ar
    11    22    23   ar
    12    23    24    1
    13    23    25   ar
    14    25    26   ar
    15    26    27    1
    16     4     5   ar
    17     5     6   ar
    18     6     7   ar
    19     7    11    1
    20    11    12    1
    21    11    13    1
    22    11    14    1
    23     7     8   ar
    24     8     9   ar
    25     9    10   ar
    26    10     2   ar
    27    27    17    1
    28     9     5   ar
    29    26    20   ar
    30    15    16    1
@<TRIPOS>MOLECULE
*****
 27 30 0 0 0
SMALL
GASTEIGER

@<TRIPOS>ATOM
      1 C         137.9709  140.9705  157.0405 C.3     1  UNL1        0.0523
      2 C         138.0661  141.0982  158.5320 C.ar    1  UNL1        0.0653
      3 C         138.1457  139.8680  159.3865 C.ar    1  UNL1        0.0490
      4 C         138.2409  139.9957  160.8781 C.ar    1  UNL1        0.1342
      5 N         138.2565  141.3537  161.5150 N.ar    1  UNL1       -0.1816
      6 N         138.3419  141.7893  162.9478 N.ar    1  UNL1       -0.1409
      7 C         138.3152  143.2887  162.9788 C.ar    1  UNL1        0.2227
      8 N         138.2132  143.7798  161.5652 N.ar    1  UNL1       -0.1880
      9 C         138.1769  142.5839  160.6605 C.ar    1  UNL1        0.2552
     10 N         138.0817  142.4562  159.1690 N.ar    1  UNL1       -0.2142
     11 C         138.3791  144.1465  164.2077 C.3     1  UNL1        0.3163
     12 C         138.4432  145.0042  165.4366 C.3     1  UNL1        0.0805
     13 F         137.4169  143.2271  164.8996 F       1  UNL1       -0.1962
     14 F         139.3414  145.0659  163.5159 F       1  UNL1       -0.1962
     15 N         138.3204  138.7655  161.7326 N.pl3   1  UNL1       -0.3192
     16 H         137.6296  138.0682  161.6571 H       1  UNL1        0.1482
     17 C         139.4527  138.5977  162.7022 C.3     1  UNL1        0.0750
     18 C         139.3260  137.6327  163.8434 C.3     1  UNL1        0.0245
     19 C         140.4582  137.4649  164.8129 C.3     1  UNL1        0.0277
     20 C         141.7171  138.2622  164.6411 C.ar    1  UNL1       -0.0260
     21 C         142.8493  138.0945  165.6107 C.ar    1  UNL1       -0.0041
     22 C         144.1082  138.8918  165.4389 C.ar    1  UNL1        0.0064
     23 C         144.2348  139.8569  164.2976 C.ar    1  UNL1        0.0342
     24 BR        145.4937  140.6543  164.1258 Br      1  UNL1       -0.0490
     25 C         143.1026  140.0247  163.3281 C.ar    1  UNL1        0.0022
     26 C         141.8437  139.2273  163.4999 C.ar    1  UNL1       -0.0240
     27 C         140.7115  139.3951  162.5304 C.3     1  UNL1        0.0455
@<TRIPOS>BOND
     1     1     2    1
     2     2     3   ar
     3     3     4   ar
     4     4    15    1
     5    15    17    1
     6    17    18    1
     7    18    19    1
     8    19    20    1
     9    20    21   ar
    10    21    22   ar
    11    22    23   ar
    12    23    24    1
    13    23    25   ar
    14    25    26   ar
    15    26    27    1
    16     4     5   ar
    17     5     6   ar
    18     6     7   ar
    19     7    11    1
    20    11    12    1
    21    11    13    1
    22    11    14    1
    23     7     8   ar
    24     8     9   ar
    25     9    10   ar
    26    10     2   ar
    27    27    17    1
    28     9     5   ar
    29    26    20   ar
    30    15    16    1
@<TRIPOS>MOLECULE
*****
 27 30 0 0 0
SMALL
GASTEIGER

@<TRIPOS>ATOM
      1 C         144.0164  137.9241  161.4081 C.3     1  UNL1        0.0523
      2 C         142.9588  138.9368  161.7337 C.ar    1  UNL1        0.0653
      3 C         141.7269  138.5207  162.4816 C.ar    1  UNL1        0.0490
      4 C         140.6693  139.5334  162.8072 C.ar    1  UNL1        0.1342
      5 N         140.8437  140.9622  162.3849 N.ar    1  UNL1       -0.1816
      6 N         139.9781  142.1741  162.5629 N.ar    1  UNL1       -0.1409
      7 C         140.6750  143.3393  161.9251 C.ar    1  UNL1        0.2227
      8 N         141.9713  142.8473  161.3529 N.ar    1  UNL1       -0.1880
      9 C         142.0756  141.3782  161.6370 C.ar    1  UNL1        0.2552
     10 N         143.1332  140.3655  161.3115 N.ar    1  UNL1       -0.2142
     11 C         140.1650  144.7489  161.8693 C.3     1  UNL1        0.3163
     12 C         139.6552  146.1584  161.8134 C.3     1  UNL1        0.0805
     13 F         138.7857  144.2631  162.2031 F       1  UNL1       -0.1962
     14 F         141.5444  145.2346  161.5354 F       1  UNL1       -0.1962
     15 N         139.4374  139.1174  163.5550 N.pl3   1  UNL1       -0.3192
     16 H         138.7055  138.6595  163.0819 H       1  UNL1        0.1482
     17 C         139.3206  139.3991  165.0237 C.3     1  UNL1        0.0750
     18 C         138.3148  138.6563  165.8522 C.3     1  UNL1        0.0245
     19 C         138.1981  138.9380  167.3209 C.3     1  UNL1        0.0277
     20 C         139.0871  139.9626  167.9610 C.ar    1  UNL1       -0.0260
     21 C         138.9704  140.2443  169.4297 C.ar    1  UNL1       -0.0041
     22 C         139.8594  141.2689  170.0699 C.ar    1  UNL1        0.0064
     23 C         140.8653  142.0118  169.2413 C.ar    1  UNL1        0.0342
     24 BR        141.7543  143.0364  169.8814 Br      1  UNL1       -0.0490
     25 C         140.9820  141.7301  167.7726 C.ar    1  UNL1        0.0022
     26 C         140.0930  140.7055  167.1325 C.ar    1  UNL1       -0.0240
     27 C         140.2097  140.4237  165.6639 C.3     1  UNL1        0.0455
@<TRIPOS>BOND
     1     1     2    1
     2     2     3   ar
     3     3     4   ar
     4     4    15    1
     5    15    17    1
     6    17    18    1
     7    18    19    1
     8    19    20    1
     9    20    21   ar
    10    21    22   ar
    11    22    23   ar
    12    23    24    1
    13    23    25   ar
    14    25    26   ar
    15    26    27    1
    16     4     5   ar
    17     5     6   ar
    18     6     7   ar
    19     7    11    1
    20    11    12    1
    21    11    13    1
    22    11    14    1
    23     7     8   ar
    24     8     9   ar
    25     9    10   ar
    26    10     2   ar
    27    27    17    1
    28     9     5   ar
    29    26    20   ar
    30    15    16    1
@<TRIPOS>MOLECULE
*****
 27 30 0 0 0
SMALL
GASTEIGER

@<TRIPOS>ATOM
      1 C         139.6715  140.3901  170.5326 C.3     1  UNL1        0.0523
      2 C         139.6453  140.5110  169.0377 C.ar    1  UNL1        0.0653
      3 C         140.2764  141.6967  168.3699 C.ar    1  UNL1        0.0490
      4 C         140.2502  141.8175  166.8750 C.ar    1  UNL1        0.1342
      5 N         139.5929  140.7526  166.0479 N.ar    1  UNL1       -0.1816
      6 N         139.4127  140.6007  164.5666 N.ar    1  UNL1       -0.1409
      7 C         138.6702  139.3211  164.3188 C.ar    1  UNL1        0.2227
      8 N         138.3916  138.6822  165.6471 N.ar    1  UNL1       -0.1880
      9 C         138.9619  139.5670  166.7157 C.ar    1  UNL1        0.2552
     10 N         138.9881  139.4461  168.2106 N.ar    1  UNL1       -0.2142
     11 C         138.2756  138.7761  162.9782 C.3     1  UNL1        0.3163
     12 C         137.8810  138.2311  161.6376 C.3     1  UNL1        0.0805
     13 F         139.1266  137.5648  163.2201 F       1  UNL1       -0.1962
     14 F         137.4246  139.9873  162.7363 F       1  UNL1       -0.1962
     15 N         140.8812  143.0032  166.2072 N.pl3   1  UNL1       -0.3192
     16 H         140.5954  143.9139  166.4484 H       1  UNL1        0.1482
     17 C         141.9478  142.8013  165.1719 C.3     1  UNL1        0.0750
     18 C         143.3066  142.3146  165.5801 C.3     1  UNL1        0.0245
     19 C         144.3731  142.1127  164.5448 C.3     1  UNL1        0.0277
     20 C         144.0807  142.3976  163.1014 C.ar    1  UNL1       -0.0260
     21 C         145.1473  142.1957  162.0661 C.ar    1  UNL1       -0.0041
     22 C         144.8549  142.4805  160.6227 C.ar    1  UNL1        0.0064
     23 C         143.4960  142.9673  160.2146 C.ar    1  UNL1        0.0342
     24 BR        143.2036  143.2521  158.7712 Br      1  UNL1       -0.0490
     25 C         142.4295  143.1691  161.2499 C.ar    1  UNL1        0.0022
     26 C         142.7219  142.8843  162.6933 C.ar    1  UNL1       -0.0240
     27 C         141.6554  143.0861  163.7285 C.3     1  UNL1        0.0455
@<TRIPOS>BOND
     1     1     2    1
     2     2     3   ar
     3     3     4   ar
     4     4    15    1
     5    15    17    1
     6    17    18    1
     7    18    19    1
     8    19    20    1
     9    20    21   ar
    10    21    22   ar
    11    22    23   ar
    12    23    24    1
    13    23    25   ar
    14    25    26   ar
    15    26    27    1
    16     4     5   ar
    17     5     6   ar
    18     6     7   ar
    19     7    11    1
    20    11    12    1
    21    11    13    1
    22    11    14    1
    23     7     8   ar
    24     8     9   ar
    25     9    10   ar
    26    10     2   ar
    27    27    17    1
    28     9     5   ar
    29    26    20   ar
    30    15    16    1
@<TRIPOS>MOLECULE
*****
 27 30 0 0 0
SMALL
GASTEIGER

@<TRIPOS>ATOM
      1 C         137.8894  140.6976  157.0109 C.3     1  UNL1        0.0523
      2 C         138.0676  140.9577  158.4774 C.ar    1  UNL1        0.0653
      3 C         138.4768  142.3202  158.9531 C.ar    1  UNL1        0.0490
      4 C         138.6550  142.5803  160.4196 C.ar    1  UNL1        0.1342
      5 N         138.4240  141.4780  161.4104 N.ar    1  UNL1       -0.1816
      6 N         138.5215  141.4366  162.9066 N.ar    1  UNL1       -0.1409
      7 C         138.1725  140.0485  163.3556 C.ar    1  UNL1        0.2227
      8 N         137.8594  139.2321  162.1368 N.ar    1  UNL1       -0.1880
      9 C         138.0148  140.1156  160.9346 C.ar    1  UNL1        0.2552
     10 N         137.8366  139.8555  159.4681 N.ar    1  UNL1       -0.2142
     11 C         138.1420  139.5623  164.7743 C.3     1  UNL1        0.3163
     12 C         138.1116  139.0760  166.1929 C.3     1  UNL1        0.0805
     13 F         137.8145  140.9491  165.2426 F       1  UNL1       -0.1962
     14 F         138.4695  138.1754  164.3060 F       1  UNL1       -0.1962
     15 N         139.0641  143.9427  160.8954 N.pl3   1  UNL1       -0.3192
     16 H         138.5575  144.7368  160.6091 H       1  UNL1        0.1482
     17 C         140.2452  144.0953  161.8075 C.3     1  UNL1        0.0750
     18 C         140.3903  145.3301  162.6466 C.3     1  UNL1        0.0245
     19 C         141.5714  145.4826  163.5586 C.3     1  UNL1        0.0277
     20 C         142.6073  144.4002  163.6316 C.ar    1  UNL1       -0.0260
     21 C         143.7884  144.5527  164.5437 C.ar    1  UNL1       -0.0041
     22 C         144.8243  143.4704  164.6167 C.ar    1  UNL1        0.0064
     23 C         144.6792  142.2355  163.7775 C.ar    1  UNL1        0.0342
     24 BR        145.7151  141.1531  163.8505 Br      1  UNL1       -0.0490
     25 C         143.4981  142.0830  162.8655 C.ar    1  UNL1        0.0022
     26 C         142.4622  143.1654  162.7925 C.ar    1  UNL1       -0.0240
     27 C         141.2812  143.0129  161.8805 C.3     1  UNL1        0.0455
@<TRIPOS>BOND
     1     1     2    1
     2     2     3   ar
     3     3     4   ar
     4     4    15    1
     5    15    17    1
     6    17    18    1
     7    18    19    1
     8    19    20    1
     9    20    21   ar
    10    21    22   ar
    11    22    23   ar
    12    23    24    1
    13    23    25   ar
    14    25    26   ar
    15    26    27    1
    16     4     5   ar
    17     5     6   ar
    18     6     7   ar
    19     7    11    1
    20    11    12    1
    21    11    13    1
    22    11    14    1
    23     7     8   ar
    24     8     9   ar
    25     9    10   ar
    26    10     2   ar
    27    27    17    1
    28     9     5   ar
    29    26    20   ar
    30    15    16    1
