@<TRIPOS>MOLECULE
*****
 40 45 0 0 0
SMALL
GASTEIGER

@<TRIPOS>ATOM
      1 C         140.9600  145.3614  160.4249 C.3     1  UNL1        0.0294
      2 C         140.3121  145.3050  159.0731 C.3     1  UNL1        0.0666
      3 S         139.9717  143.9794  158.4593 S.3     1  UNL1       -0.0756
      4 C         139.5955  140.8787  160.7637 C.ar    1  UNL1        0.1669
      5 N         138.1618  141.2820  160.5840 N.ar    1  UNL1       -0.1282
      6 N         138.1284  142.4926  159.6989 N.ar    1  UNL1       -0.1221
      7 C         139.5412  142.8375  159.3316 C.ar    1  UNL1        0.1932
      8 N         140.4479  141.8401  159.9896 N.ar    1  UNL1       -0.2884
      9 C         141.9444  141.8094  159.8909 C.3     1  UNL1        0.1340
     10 C         138.3287  139.0748  167.2745 C.3     1  UNL1        0.0521
     11 C         138.7690  139.2356  165.8496 C.ar    1  UNL1        0.0593
     12 C         138.2747  140.3964  165.0383 C.ar    1  UNL1        0.0147
     13 C         138.7149  140.5572  163.6135 C.ar    1  UNL1        0.0028
     14 C         139.6495  139.5572  162.9998 C.ar    1  UNL1        0.0206
     15 C         140.0898  139.7180  161.5749 C.ar    1  UNL1        0.0374
     16 C         141.0243  138.7179  160.9613 C.ar    1  UNL1        0.0031
     17 C         141.5186  137.5571  161.7726 C.ar    1  UNL1        0.0016
     18 C         141.0784  137.3963  163.1974 C.ar    1  UNL1        0.0191
     19 C         140.1438  138.3963  163.8111 C.ar    1  UNL1        0.0810
     20 N         139.7036  138.2355  165.2360 N.ar    1  UNL1       -0.2497
     21 C         140.1131  145.4598  161.6589 C.3     1  UNL1        0.0730
     22 N         140.4188  144.5993  162.8490 N.3     1  UNL1       -0.2720
     23 C         141.3688  143.4644  162.6046 C.3     1  UNL1        0.0768
     24 C         141.8687  142.4374  163.5770 C.3     1  UNL1        0.0434
     25 C         141.5422  142.2917  165.0336 C.ar    1  UNL1       -0.0216
     26 C         142.2606  141.1238  165.6421 C.ar    1  UNL1        0.0337
     27 C         142.0718  140.8013  167.0948 C.ar    1  UNL1        0.1530
     28 C         141.1647  141.6465  167.9391 C.ar    1  UNL1        0.1021
     29 C         140.4464  142.8143  167.3306 C.ar    1  UNL1        0.0147
     30 C         140.6351  143.1369  165.8779 C.ar    1  UNL1       -0.0232
     31 C         139.8305  144.3367  165.4739 C.3     1  UNL1        0.0434
     32 C         139.7343  144.9874  164.1259 C.3     1  UNL1        0.0768
     33 N         140.9760  141.3239  169.3918 N.pl3   1  UNL1       -0.1875
     34 C         141.6943  140.1561  170.0001 C.3     1  UNL1        0.1628
     35 C         142.6014  139.3108  169.1559 C.3     1  UNL1        0.2287
     36 O         142.7901  139.6335  167.7032 O.3     1  UNL1       -0.4723
     37 S         140.0689  142.1692  170.2360 S.O2    1  UNL1        0.0590
     38 C         139.1619  143.0146  171.0802 C.3     1  UNL1        0.1999
     39 O         138.9799  141.1484  170.0880 O.2     1  UNL1       -0.1542
     40 O         141.1580  143.1900  170.3840 O.2     1  UNL1       -0.1542
@<TRIPOS>BOND
     1    10    11    1
     2    11    12   ar
     3    12    13   ar
     4    13    14   ar
     5    14    15   ar
     6    15     4    1
     7     4     5   ar
     8     5     6   ar
     9     6     7   ar
    10     7     3    1
    11     3     2    1
    12     2     1    1
    13     1    21    1
    14    21    22    1
    15    22    23    1
    16    23    24    1
    17    24    25    1
    18    25    26   ar
    19    26    27   ar
    20    27    28   ar
    21    28    29   ar
    22    29    30   ar
    23    30    31    1
    24    31    32    1
    25    28    33    1
    26    33    37    1
    27    37    38    1
    28    37    39    2
    29    37    40    2
    30    33    34    1
    31    34    35    1
    32    35    36    1
    33     7     8   ar
    34     8     9    1
    35    15    16   ar
    36    16    17   ar
    37    17    18   ar
    38    18    19   ar
    39    19    20   ar
    40    20    11   ar
    41    19    14   ar
    42     8     4   ar
    43    32    22    1
    44    30    25   ar
    45    36    27    1
@<TRIPOS>MOLECULE
*****
 40 45 0 0 0
SMALL
GASTEIGER

@<TRIPOS>ATOM
      1 C         140.1973  140.3167  170.3677 C.3     1  UNL1        0.0294
      2 C         141.4465  140.4918  171.1794 C.3     1  UNL1        0.0666
      3 S         142.7810  140.1523  170.5848 S.3     1  UNL1       -0.0756
      4 C         143.1575  140.3618  166.7273 C.ar    1  UNL1        0.1669
      5 N         143.0659  138.8782  166.9295 N.ar    1  UNL1       -0.1282
      6 N         142.9138  138.6192  168.3991 N.ar    1  UNL1       -0.1221
      7 C         142.9113  139.9426  169.1052 C.ar    1  UNL1        0.1932
      8 N         143.0619  141.0195  168.0720 N.ar    1  UNL1       -0.2884
      9 C         143.1087  142.4952  168.3369 C.3     1  UNL1        0.1340
     10 C         142.7144  138.0043  160.2855 C.3     1  UNL1        0.0521
     11 C         142.8649  138.7693  161.5670 C.ar    1  UNL1        0.0593
     12 C         142.7058  138.0669  162.8829 C.ar    1  UNL1        0.0147
     13 C         142.8563  138.8319  164.1643 C.ar    1  UNL1        0.0028
     14 C         143.1660  140.2992  164.1300 C.ar    1  UNL1        0.0206
     15 C         143.3166  141.0641  165.4116 C.ar    1  UNL1        0.0374
     16 C         143.6263  142.5313  165.3771 C.ar    1  UNL1        0.0031
     17 C         143.7855  143.2337  164.0613 C.ar    1  UNL1        0.0016
     18 C         143.6349  142.4688  162.7799 C.ar    1  UNL1        0.0191
     19 C         143.3252  141.0015  162.8142 C.ar    1  UNL1        0.0810
     20 N         143.1746  140.2366  161.5327 N.ar    1  UNL1       -0.2497
     21 C         139.7338  141.4156  169.4581 C.3     1  UNL1        0.0730
     22 N         139.6735  141.1878  167.9767 N.3     1  UNL1       -0.2720
     23 C         139.4080  139.7757  167.5458 C.3     1  UNL1        0.0768
     24 C         139.2902  139.2291  166.1538 C.3     1  UNL1        0.0434
     25 C         139.4088  139.9596  164.8492 C.ar    1  UNL1       -0.0216
     26 C         139.2238  139.0335  163.6838 C.ar    1  UNL1        0.0337
     27 C         139.3044  139.5648  162.2833 C.ar    1  UNL1        0.1530
     28 C         139.5701  141.0222  162.0482 C.ar    1  UNL1        0.1021
     29 C         139.7551  141.9484  163.2136 C.ar    1  UNL1        0.0147
     30 C         139.6744  141.4171  164.6140 C.ar    1  UNL1       -0.0232
     31 C         139.8872  142.5040  165.6256 C.3     1  UNL1        0.0434
     32 C         139.8868  142.4019  167.1222 C.3     1  UNL1        0.0768
     33 N         139.6508  141.5535  160.6478 N.pl3   1  UNL1       -0.1875
     34 C         139.4658  140.6274  159.4825 C.3     1  UNL1        0.1628
     35 C         139.2001  139.1699  159.7175 C.3     1  UNL1        0.2287
     36 O         139.1194  138.6387  161.1180 O.3     1  UNL1       -0.4723
     37 S         139.9165  143.0110  160.4128 S.O2    1  UNL1        0.0590
     38 C         140.1820  144.4685  160.1778 C.3     1  UNL1        0.1999
     39 O         141.3727  142.7131  160.2113 O.2     1  UNL1       -0.1542
     40 O         138.4602  143.3089  160.6144 O.2     1  UNL1       -0.1542
@<TRIPOS>BOND
     1    10    11    1
     2    11    12   ar
     3    12    13   ar
     4    13    14   ar
     5    14    15   ar
     6    15     4    1
     7     4     5   ar
     8     5     6   ar
     9     6     7   ar
    10     7     3    1
    11     3     2    1
    12     2     1    1
    13     1    21    1
    14    21    22    1
    15    22    23    1
    16    23    24    1
    17    24    25    1
    18    25    26   ar
    19    26    27   ar
    20    27    28   ar
    21    28    29   ar
    22    29    30   ar
    23    30    31    1
    24    31    32    1
    25    28    33    1
    26    33    37    1
    27    37    38    1
    28    37    39    2
    29    37    40    2
    30    33    34    1
    31    34    35    1
    32    35    36    1
    33     7     8   ar
    34     8     9    1
    35    15    16   ar
    36    16    17   ar
    37    17    18   ar
    38    18    19   ar
    39    19    20   ar
    40    20    11   ar
    41    19    14   ar
    42     8     4   ar
    43    32    22    1
    44    30    25   ar
    45    36    27    1
@<TRIPOS>MOLECULE
*****
 40 45 0 0 0
SMALL
GASTEIGER

@<TRIPOS>ATOM
      1 C         140.3252  139.4650  158.4212 C.3     1  UNL1        0.0294
      2 C         139.0305  139.6023  157.6760 C.3     1  UNL1        0.0666
      3 S         138.1831  140.8256  157.8639 S.3     1  UNL1       -0.0756
      4 C         139.1106  143.2319  160.7648 C.ar    1  UNL1        0.1669
      5 N         139.6029  144.0056  159.5777 N.ar    1  UNL1       -0.1282
      6 N         139.3154  143.1983  158.3466 N.ar    1  UNL1       -0.1221
      7 C         138.6454  141.9257  158.7727 C.ar    1  UNL1        0.1932
      8 N         138.5189  141.9465  160.2672 N.ar    1  UNL1       -0.2884
      9 C         137.9078  140.8707  161.1153 C.3     1  UNL1        0.1340
     10 C         144.4897  143.6827  165.0206 C.3     1  UNL1        0.0521
     11 C         143.1661  143.6788  164.3149 C.ar    1  UNL1        0.0593
     12 C         143.0815  143.2435  162.8819 C.ar    1  UNL1        0.0147
     13 C         141.7579  143.2396  162.1762 C.ar    1  UNL1        0.0028
     14 C         140.5189  143.6710  162.9034 C.ar    1  UNL1        0.0206
     15 C         139.1953  143.6671  162.1976 C.ar    1  UNL1        0.0374
     16 C         137.9564  144.0985  162.9249 C.ar    1  UNL1        0.0031
     17 C         138.0410  144.5338  164.3579 C.ar    1  UNL1        0.0016
     18 C         139.3645  144.5377  165.0636 C.ar    1  UNL1        0.0191
     19 C         140.6035  144.1063  164.3364 C.ar    1  UNL1        0.0810
     20 N         141.9271  144.1102  165.0421 N.ar    1  UNL1       -0.2497
     21 C         140.5105  138.3460  159.4027 C.3     1  UNL1        0.0730
     22 N         140.3078  138.5926  160.8683 N.3     1  UNL1       -0.2720
     23 C         139.1040  137.9373  161.4780 C.3     1  UNL1        0.0768
     24 C         138.6307  137.9895  162.9006 C.3     1  UNL1        0.0434
     25 C         139.2443  138.7097  164.0644 C.ar    1  UNL1       -0.0216
     26 C         138.4494  138.5002  165.3192 C.ar    1  UNL1        0.0337
     27 C         138.8930  139.1367  166.6030 C.ar    1  UNL1        0.1530
     28 C         140.1313  139.9827  166.6321 C.ar    1  UNL1        0.1021
     29 C         140.9261  140.1922  165.3773 C.ar    1  UNL1        0.0147
     30 C         140.4826  139.5557  164.0935 C.ar    1  UNL1       -0.0232
     31 C         141.4133  139.8904  162.9658 C.3     1  UNL1        0.0434
     32 C         141.3354  139.4617  161.5304 C.3     1  UNL1        0.0768
     33 N         140.5748  140.6192  167.9159 N.pl3   1  UNL1       -0.1875
     34 C         139.7800  140.4097  169.1706 C.3     1  UNL1        0.1628
     35 C         138.5417  139.5638  169.1416 C.3     1  UNL1        0.2287
     36 O         138.0982  138.9273  167.8578 O.3     1  UNL1       -0.4723
     37 S         141.8132  141.4652  167.9449 S.O2    1  UNL1        0.0590
     38 C         143.0515  142.3113  167.9738 C.3     1  UNL1        0.1999
     39 O         142.6514  140.2326  168.1121 O.2     1  UNL1       -0.1542
     40 O         140.9749  142.6979  167.7776 O.2     1  UNL1       -0.1542
@<TRIPOS>BOND
     1    10    11    1
     2    11    12   ar
     3    12    13   ar
     4    13    14   ar
     5    14    15   ar
     6    15     4    1
     7     4     5   ar
     8     5     6   ar
     9     6     7   ar
    10     7     3    1
    11     3     2    1
    12     2     1    1
    13     1    21    1
    14    21    22    1
    15    22    23    1
    16    23    24    1
    17    24    25    1
    18    25    26   ar
    19    26    27   ar
    20    27    28   ar
    21    28    29   ar
    22    29    30   ar
    23    30    31    1
    24    31    32    1
    25    28    33    1
    26    33    37    1
    27    37    38    1
    28    37    39    2
    29    37    40    2
    30    33    34    1
    31    34    35    1
    32    35    36    1
    33     7     8   ar
    34     8     9    1
    35    15    16   ar
    36    16    17   ar
    37    17    18   ar
    38    18    19   ar
    39    19    20   ar
    40    20    11   ar
    41    19    14   ar
    42     8     4   ar
    43    32    22    1
    44    30    25   ar
    45    36    27    1
@<TRIPOS>MOLECULE
*****
 40 45 0 0 0
SMALL
GASTEIGER

@<TRIPOS>ATOM
      1 C         142.6619  138.0102  159.9001 C.3     1  UNL1        0.0294
      2 C         142.1403  139.3100  159.3628 C.3     1  UNL1        0.0666
      3 S         142.1672  139.5762  157.8869 S.3     1  UNL1       -0.0756
      4 C         143.0284  136.6595  155.4750 C.ar    1  UNL1        0.1669
      5 N         144.3493  137.3654  155.5595 N.ar    1  UNL1       -0.1282
      6 N         144.1874  138.5439  156.4733 N.ar    1  UNL1       -0.1221
      7 C         142.7665  138.5664  156.9535 C.ar    1  UNL1        0.1932
      8 N         142.0502  137.4018  156.3365 N.ar    1  UNL1       -0.2884
      9 C         140.6088  137.0425  156.5445 C.3     1  UNL1        0.1340
     10 C         144.3355  130.0337  156.7557 C.3     1  UNL1        0.0521
     11 C         143.9358  131.3823  156.2343 C.ar    1  UNL1        0.0593
     12 C         144.2273  132.6141  157.0392 C.ar    1  UNL1        0.0147
     13 C         143.8277  133.9625  156.5177 C.ar    1  UNL1        0.0028
     14 C         143.1365  134.0793  155.1916 C.ar    1  UNL1        0.0206
     15 C         142.7369  135.4278  154.6702 C.ar    1  UNL1        0.0374
     16 C         142.0458  135.5444  153.3440 C.ar    1  UNL1        0.0031
     17 C         141.7543  134.3126  152.5392 C.ar    1  UNL1        0.0016
     18 C         142.1539  132.9642  153.0606 C.ar    1  UNL1        0.0191
     19 C         142.8451  132.8475  154.3868 C.ar    1  UNL1        0.0810
     20 N         143.2447  131.4989  154.9081 N.ar    1  UNL1       -0.2497
     21 C         143.5248  137.9980  161.1269 C.3     1  UNL1        0.0730
     22 N         142.9493  138.3993  162.4527 N.3     1  UNL1       -0.2720
     23 C         141.5243  137.9966  162.6923 C.3     1  UNL1        0.0768
     24 C         140.6729  138.2454  163.9020 C.3     1  UNL1        0.0434
     25 C         141.0362  138.9582  165.1707 C.ar    1  UNL1       -0.0216
     26 C         139.8855  138.9857  166.1326 C.ar    1  UNL1        0.0337
     27 C         140.0392  139.6532  167.4671 C.ar    1  UNL1        0.1530
     28 C         141.3436  140.2934  167.8397 C.ar    1  UNL1        0.1021
     29 C         142.4943  140.2660  166.8777 C.ar    1  UNL1        0.0147
     30 C         142.3405  139.5984  165.5433 C.ar    1  UNL1       -0.0232
     31 C         143.6038  139.6838  164.7390 C.3     1  UNL1        0.0434
     32 C         143.8747  139.1501  163.3636 C.3     1  UNL1        0.0768
     33 N         141.4973  140.9610  169.1741 N.pl3   1  UNL1       -0.1875
     34 C         140.3467  140.9884  170.1359 C.3     1  UNL1        0.1628
     35 C         139.0422  140.3483  169.7634 C.3     1  UNL1        0.2287
     36 O         138.8886  139.6807  168.4289 O.3     1  UNL1       -0.4723
     37 S         142.8017  141.6011  169.5466 S.O2    1  UNL1        0.0590
     38 C         144.1061  142.2414  169.9190 C.3     1  UNL1        0.1999
     39 O         143.2839  140.2946  170.1037 O.2     1  UNL1       -0.1542
     40 O         142.3196  142.9077  168.9893 O.2     1  UNL1       -0.1542
@<TRIPOS>BOND
     1    10    11    1
     2    11    12   ar
     3    12    13   ar
     4    13    14   ar
     5    14    15   ar
     6    15     4    1
     7     4     5   ar
     8     5     6   ar
     9     6     7   ar
    10     7     3    1
    11     3     2    1
    12     2     1    1
    13     1    21    1
    14    21    22    1
    15    22    23    1
    16    23    24    1
    17    24    25    1
    18    25    26   ar
    19    26    27   ar
    20    27    28   ar
    21    28    29   ar
    22    29    30   ar
    23    30    31    1
    24    31    32    1
    25    28    33    1
    26    33    37    1
    27    37    38    1
    28    37    39    2
    29    37    40    2
    30    33    34    1
    31    34    35    1
    32    35    36    1
    33     7     8   ar
    34     8     9    1
    35    15    16   ar
    36    16    17   ar
    37    17    18   ar
    38    18    19   ar
    39    19    20   ar
    40    20    11   ar
    41    19    14   ar
    42     8     4   ar
    43    32    22    1
    44    30    25   ar
    45    36    27    1
@<TRIPOS>MOLECULE
*****
 40 45 0 0 0
SMALL
GASTEIGER

@<TRIPOS>ATOM
      1 C         138.2227  138.9191  165.8838 C.3     1  UNL1        0.0294
      2 C         138.4242  139.1148  167.3573 C.3     1  UNL1        0.0666
      3 S         139.5459  139.9787  167.8526 S.3     1  UNL1       -0.0756
      4 C         142.1501  141.5337  165.4306 C.ar    1  UNL1        0.1669
      5 N         142.7335  140.1686  165.6461 N.ar    1  UNL1       -0.1282
      6 N         141.8290  139.4201  166.5796 N.ar    1  UNL1       -0.1221
      7 C         140.6865  140.3224  166.9411 C.ar    1  UNL1        0.1932
      8 N         140.8850  141.6286  166.2309 N.ar    1  UNL1       -0.2884
      9 C         139.9776  142.8206  166.3076 C.3     1  UNL1        0.1340
     10 C         141.3651  142.8420  158.7282 C.3     1  UNL1        0.0521
     11 C         141.7063  142.7850  160.1878 C.ar    1  UNL1        0.0593
     12 C         141.1264  141.7047  161.0519 C.ar    1  UNL1        0.0147
     13 C         141.4677  141.6477  162.5114 C.ar    1  UNL1        0.0028
     14 C         142.3887  142.6709  163.1069 C.ar    1  UNL1        0.0206
     15 C         142.7299  142.6139  164.5665 C.ar    1  UNL1        0.0374
     16 C         143.6509  143.6372  165.1619 C.ar    1  UNL1        0.0031
     17 C         144.2308  144.7175  164.2977 C.ar    1  UNL1        0.0016
     18 C         143.8896  144.7745  162.8383 C.ar    1  UNL1        0.0191
     19 C         142.9686  143.7513  162.2428 C.ar    1  UNL1        0.0810
     20 N         142.6274  143.8083  160.7832 N.ar    1  UNL1       -0.2497
     21 C         138.8478  137.7448  165.1908 C.3     1  UNL1        0.0730
     22 N         139.3910  137.8963  163.8008 N.3     1  UNL1       -0.2720
     23 C         140.8488  137.5843  163.6343 C.3     1  UNL1        0.0768
     24 C         141.6803  137.6387  162.3869 C.3     1  UNL1        0.0434
     25 C         141.2593  138.0185  160.9982 C.ar    1  UNL1       -0.0216
     26 C         142.4080  137.9400  160.0367 C.ar    1  UNL1        0.0337
     27 C         142.2003  138.2808  158.5908 C.ar    1  UNL1        0.1530
     28 C         140.8440  138.6999  158.1062 C.ar    1  UNL1        0.1021
     29 C         139.6953  138.7783  159.0678 C.ar    1  UNL1        0.0147
     30 C         139.9030  138.4376  160.5137 C.ar    1  UNL1       -0.0232
     31 C         138.6326  138.5805  161.2984 C.3     1  UNL1        0.0434
     32 C         138.4048  138.3396  162.7613 C.3     1  UNL1        0.0768
     33 N         140.6363  139.0406  156.6603 N.pl3   1  UNL1       -0.1875
     34 C         141.7850  138.9622  155.6989 C.3     1  UNL1        0.1628
     35 C         143.1413  138.5431  156.1833 C.3     1  UNL1        0.2287
     36 O         143.3489  138.2023  157.6293 O.3     1  UNL1       -0.4723
     37 S         139.2800  139.4598  156.1759 S.O2    1  UNL1        0.0590
     38 C         137.9236  139.8791  155.6915 C.3     1  UNL1        0.1999
     39 O         138.8972  138.0200  156.0016 O.2     1  UNL1       -0.1542
     40 O         139.6628  140.8997  156.3502 O.2     1  UNL1       -0.1542
@<TRIPOS>BOND
     1    10    11    1
     2    11    12   ar
     3    12    13   ar
     4    13    14   ar
     5    14    15   ar
     6    15     4    1
     7     4     5   ar
     8     5     6   ar
     9     6     7   ar
    10     7     3    1
    11     3     2    1
    12     2     1    1
    13     1    21    1
    14    21    22    1
    15    22    23    1
    16    23    24    1
    17    24    25    1
    18    25    26   ar
    19    26    27   ar
    20    27    28   ar
    21    28    29   ar
    22    29    30   ar
    23    30    31    1
    24    31    32    1
    25    28    33    1
    26    33    37    1
    27    37    38    1
    28    37    39    2
    29    37    40    2
    30    33    34    1
    31    34    35    1
    32    35    36    1
    33     7     8   ar
    34     8     9    1
    35    15    16   ar
    36    16    17   ar
    37    17    18   ar
    38    18    19   ar
    39    19    20   ar
    40    20    11   ar
    41    19    14   ar
    42     8     4   ar
    43    32    22    1
    44    30    25   ar
    45    36    27    1
@<TRIPOS>MOLECULE
*****
 40 45 0 0 0
SMALL
GASTEIGER

@<TRIPOS>ATOM
      1 C         140.8889  145.2661  160.6195 C.3     1  UNL1        0.0294
      2 C         140.3354  145.1939  159.2271 C.3     1  UNL1        0.0666
      3 S         140.3251  143.8871  158.4910 S.3     1  UNL1       -0.0756
      4 C         140.5641  140.6765  160.6590 C.ar    1  UNL1        0.1669
      5 N         141.8955  140.6595  159.9681 N.ar    1  UNL1       -0.1282
      6 N         141.9679  141.8601  159.0719 N.ar    1  UNL1       -0.1221
      7 C         140.6814  142.6191  159.2089 C.ar    1  UNL1        0.1932
      8 N         139.8138  141.8876  160.1897 N.ar    1  UNL1       -0.2884
      9 C         138.4375  142.2956  160.6249 C.3     1  UNL1        0.1340
     10 C         143.0114  138.8126  166.8061 C.3     1  UNL1        0.0521
     11 C         142.2760  139.0246  165.5160 C.ar    1  UNL1        0.0593
     12 C         142.7703  140.0405  164.5292 C.ar    1  UNL1        0.0147
     13 C         142.0348  140.2524  163.2391 C.ar    1  UNL1        0.0028
     14 C         140.8052  139.4487  162.9359 C.ar    1  UNL1        0.0206
     15 C         140.0698  139.6607  161.6458 C.ar    1  UNL1        0.0374
     16 C         138.8402  138.8569  161.3426 C.ar    1  UNL1        0.0031
     17 C         138.3460  137.8411  162.3295 C.ar    1  UNL1        0.0016
     18 C         139.0813  137.6291  163.6195 C.ar    1  UNL1        0.0191
     19 C         140.3110  138.4329  163.9227 C.ar    1  UNL1        0.0810
     20 N         141.0463  138.2208  165.2128 N.ar    1  UNL1       -0.2497
     21 C         139.9603  145.2534  161.7973 C.3     1  UNL1        0.0730
     22 N         140.3749  144.5804  163.0722 N.3     1  UNL1       -0.2720
     23 C         141.8413  144.6262  163.3850 C.3     1  UNL1        0.0768
     24 C         142.5633  144.0535  164.5686 C.3     1  UNL1        0.0434
     25 C         141.9974  143.2937  165.7315 C.ar    1  UNL1       -0.0216
     26 C         143.0705  142.8984  166.7022 C.ar    1  UNL1        0.0337
     27 C         142.7158  142.1282  167.9395 C.ar    1  UNL1        0.1530
     28 C         141.2881  141.7534  168.2063 C.ar    1  UNL1        0.1021
     29 C         140.2150  142.1487  167.2355 C.ar    1  UNL1        0.0147
     30 C         140.5697  142.9189  165.9982 C.ar    1  UNL1       -0.0232
     31 C         139.3552  143.2113  165.1677 C.3     1  UNL1        0.0434
     32 C         139.2687  143.9508  163.8655 C.3     1  UNL1        0.0768
     33 N         140.9334  140.9832  169.4436 N.pl3   1  UNL1       -0.1875
     34 C         142.0064  140.5879  170.4142 C.3     1  UNL1        0.1628
     35 C         143.4342  140.9627  170.1476 C.3     1  UNL1        0.2287
     36 O         143.7888  141.7328  168.9102 O.3     1  UNL1       -0.4723
     37 S         139.5056  140.6084  169.7102 S.O2    1  UNL1        0.0590
     38 C         138.0779  140.2336  169.9767 C.3     1  UNL1        0.1999
     39 O         139.3910  141.7402  170.6878 O.2     1  UNL1       -0.1542
     40 O         139.6202  139.4765  168.7325 O.2     1  UNL1       -0.1542
@<TRIPOS>BOND
     1    10    11    1
     2    11    12   ar
     3    12    13   ar
     4    13    14   ar
     5    14    15   ar
     6    15     4    1
     7     4     5   ar
     8     5     6   ar
     9     6     7   ar
    10     7     3    1
    11     3     2    1
    12     2     1    1
    13     1    21    1
    14    21    22    1
    15    22    23    1
    16    23    24    1
    17    24    25    1
    18    25    26   ar
    19    26    27   ar
    20    27    28   ar
    21    28    29   ar
    22    29    30   ar
    23    30    31    1
    24    31    32    1
    25    28    33    1
    26    33    37    1
    27    37    38    1
    28    37    39    2
    29    37    40    2
    30    33    34    1
    31    34    35    1
    32    35    36    1
    33     7     8   ar
    34     8     9    1
    35    15    16   ar
    36    16    17   ar
    37    17    18   ar
    38    18    19   ar
    39    19    20   ar
    40    20    11   ar
    41    19    14   ar
    42     8     4   ar
    43    32    22    1
    44    30    25   ar
    45    36    27    1
@<TRIPOS>MOLECULE
*****
 40 45 0 0 0
SMALL
GASTEIGER

@<TRIPOS>ATOM
      1 C         141.1288  145.2781  158.0271 C.3     1  UNL1        0.0294
      2 C         140.9537  144.4454  156.7917 C.3     1  UNL1        0.0666
      3 S         141.8294  143.2492  156.5632 S.3     1  UNL1       -0.0756
      4 C         143.5526  141.4751  159.5547 C.ar    1  UNL1        0.1669
      5 N         144.6032  142.4723  159.1647 N.ar    1  UNL1       -0.1282
      6 N         144.0856  143.2582  157.9967 N.ar    1  UNL1       -0.1221
      7 C         142.7150  142.7468  157.6647 C.ar    1  UNL1        0.1932
      8 N         142.3857  141.6449  158.6276 N.ar    1  UNL1       -0.2884
      9 C         141.1128  140.8518  158.6581 C.3     1  UNL1        0.1340
     10 C         143.5598  142.3682  166.3703 C.3     1  UNL1        0.0521
     11 C         143.5827  141.8969  164.9465 C.ar    1  UNL1        0.0593
     12 C         143.4838  142.8894  163.8261 C.ar    1  UNL1        0.0147
     13 C         143.5067  142.4179  162.4023 C.ar    1  UNL1        0.0028
     14 C         143.6286  140.9540  162.0988 C.ar    1  UNL1        0.0206
     15 C         143.6515  140.4827  160.6749 C.ar    1  UNL1        0.0374
     16 C         143.7734  139.0188  160.3715 C.ar    1  UNL1        0.0031
     17 C         143.8724  138.0262  161.4919 C.ar    1  UNL1        0.0016
     18 C         143.8495  138.4976  162.9156 C.ar    1  UNL1        0.0191
     19 C         143.7276  139.9615  163.2191 C.ar    1  UNL1        0.0810
     20 N         143.7047  140.4329  164.6430 N.ar    1  UNL1       -0.2497
     21 C         139.9732  145.4882  158.9599 C.3     1  UNL1        0.0730
     22 N         139.9750  144.8422  160.3137 N.3     1  UNL1       -0.2720
     23 C         140.2568  145.7553  161.4700 C.3     1  UNL1        0.0768
     24 C         140.3280  145.4202  162.9305 C.3     1  UNL1        0.0434
     25 C         140.1351  144.0896  163.5951 C.ar    1  UNL1       -0.0216
     26 C         140.2926  144.1924  165.0834 C.ar    1  UNL1        0.0337
     27 C         140.1383  142.9709  165.9401 C.ar    1  UNL1        0.1530
     28 C         139.8265  141.6464  165.3087 C.ar    1  UNL1        0.1021
     29 C         139.6690  141.5436  163.8205 C.ar    1  UNL1        0.0147
     30 C         139.8233  142.7651  162.9638 C.ar    1  UNL1       -0.0232
     31 C         139.6274  142.4443  161.5116 C.3     1  UNL1        0.0434
     32 C         139.6949  143.3688  160.3323 C.3     1  UNL1        0.0768
     33 N         139.6722  140.4248  166.1654 N.pl3   1  UNL1       -0.1875
     34 C         139.8298  140.5277  167.6535 C.3     1  UNL1        0.1628
     35 C         140.1416  141.8521  168.2850 C.3     1  UNL1        0.2287
     36 O         140.2958  143.0737  167.4282 O.3     1  UNL1       -0.4723
     37 S         139.3604  139.1005  165.5339 S.O2    1  UNL1        0.0590
     38 C         139.0485  137.7761  164.9024 C.3     1  UNL1        0.1999
     39 O         140.8264  138.8450  165.3456 O.2     1  UNL1       -0.1542
     40 O         137.8943  139.3559  165.7222 O.2     1  UNL1       -0.1542
@<TRIPOS>BOND
     1    10    11    1
     2    11    12   ar
     3    12    13   ar
     4    13    14   ar
     5    14    15   ar
     6    15     4    1
     7     4     5   ar
     8     5     6   ar
     9     6     7   ar
    10     7     3    1
    11     3     2    1
    12     2     1    1
    13     1    21    1
    14    21    22    1
    15    22    23    1
    16    23    24    1
    17    24    25    1
    18    25    26   ar
    19    26    27   ar
    20    27    28   ar
    21    28    29   ar
    22    29    30   ar
    23    30    31    1
    24    31    32    1
    25    28    33    1
    26    33    37    1
    27    37    38    1
    28    37    39    2
    29    37    40    2
    30    33    34    1
    31    34    35    1
    32    35    36    1
    33     7     8   ar
    34     8     9    1
    35    15    16   ar
    36    16    17   ar
    37    17    18   ar
    38    18    19   ar
    39    19    20   ar
    40    20    11   ar
    41    19    14   ar
    42     8     4   ar
    43    32    22    1
    44    30    25   ar
    45    36    27    1
@<TRIPOS>MOLECULE
*****
 40 45 0 0 0
SMALL
GASTEIGER

@<TRIPOS>ATOM
      1 C         144.0692  140.8133  159.6078 C.3     1  UNL1        0.0294
      2 C         143.5779  140.9897  158.2014 C.3     1  UNL1        0.0666
      3 S         142.6311  139.9898  157.6068 S.3     1  UNL1       -0.0756
      4 C         143.3141  136.7637  155.5594 C.ar    1  UNL1        0.1669
      5 N         144.6334  137.4676  155.4401 N.ar    1  UNL1       -0.1282
      6 N         144.5381  138.7617  156.1925 N.ar    1  UNL1       -0.1221
      7 C         143.1599  138.8577  156.7769 C.ar    1  UNL1        0.1932
      8 N         142.4035  137.6230  156.3856 N.ar    1  UNL1       -0.2884
      9 C         140.9854  137.3034  156.7556 C.3     1  UNL1        0.1340
     10 C         144.3846  130.3714  157.8491 C.3     1  UNL1        0.0521
     11 C         144.0301  131.6372  157.1264 C.ar    1  UNL1        0.0593
     12 C         144.3777  132.9667  157.7277 C.ar    1  UNL1        0.0147
     13 C         144.0232  134.2324  157.0049 C.ar    1  UNL1        0.0028
     14 C         143.3210  134.1686  155.6809 C.ar    1  UNL1        0.0206
     15 C         142.9665  135.4343  154.9582 C.ar    1  UNL1        0.0374
     16 C         142.2644  135.3704  153.6342 C.ar    1  UNL1        0.0031
     17 C         141.9169  134.0408  153.0329 C.ar    1  UNL1        0.0016
     18 C         142.2714  132.7752  153.7556 C.ar    1  UNL1        0.0191
     19 C         142.9735  132.8390  155.0796 C.ar    1  UNL1        0.0810
     20 N         143.3280  131.5733  155.8023 N.ar    1  UNL1       -0.2497
     21 C         143.8345  141.8905  160.6249 C.3     1  UNL1        0.0730
     22 N         143.6020  141.5277  162.0616 N.3     1  UNL1       -0.2720
     23 C         144.0421  140.1514  162.4647 C.3     1  UNL1        0.0768
     24 C         143.9490  139.4966  163.8111 C.3     1  UNL1        0.0434
     25 C         143.3930  140.0563  165.0867 C.ar    1  UNL1       -0.0216
     26 C         143.4918  139.0656  166.2088 C.ar    1  UNL1        0.0337
     27 C         142.9903  139.4277  167.5753 C.ar    1  UNL1        0.1530
     28 C         142.3900  140.7804  167.8199 C.ar    1  UNL1        0.1021
     29 C         142.2911  141.7711  166.6978 C.ar    1  UNL1        0.0147
     30 C         142.7926  141.4090  165.3313 C.ar    1  UNL1       -0.0232
     31 C         142.6001  142.5361  164.3605 C.3     1  UNL1        0.0434
     32 C         142.9603  142.5888  162.9053 C.3     1  UNL1        0.0768
     33 N         141.8885  141.1425  169.1864 N.pl3   1  UNL1       -0.1875
     34 C         141.9874  140.1518  170.3083 C.3     1  UNL1        0.1628
     35 C         142.5877  138.7991  170.0639 C.3     1  UNL1        0.2287
     36 O         143.0891  138.4371  168.6973 O.3     1  UNL1       -0.4723
     37 S         141.2882  142.4952  169.4309 S.O2    1  UNL1        0.0590
     38 C         140.6880  143.8480  169.6754 C.3     1  UNL1        0.1999
     39 O         139.9258  141.9453  169.1286 O.2     1  UNL1       -0.1542
     40 O         142.6507  143.0452  169.7332 O.2     1  UNL1       -0.1542
@<TRIPOS>BOND
     1    10    11    1
     2    11    12   ar
     3    12    13   ar
     4    13    14   ar
     5    14    15   ar
     6    15     4    1
     7     4     5   ar
     8     5     6   ar
     9     6     7   ar
    10     7     3    1
    11     3     2    1
    12     2     1    1
    13     1    21    1
    14    21    22    1
    15    22    23    1
    16    23    24    1
    17    24    25    1
    18    25    26   ar
    19    26    27   ar
    20    27    28   ar
    21    28    29   ar
    22    29    30   ar
    23    30    31    1
    24    31    32    1
    25    28    33    1
    26    33    37    1
    27    37    38    1
    28    37    39    2
    29    37    40    2
    30    33    34    1
    31    34    35    1
    32    35    36    1
    33     7     8   ar
    34     8     9    1
    35    15    16   ar
    36    16    17   ar
    37    17    18   ar
    38    18    19   ar
    39    19    20   ar
    40    20    11   ar
    41    19    14   ar
    42     8     4   ar
    43    32    22    1
    44    30    25   ar
    45    36    27    1
@<TRIPOS>MOLECULE
*****
 40 45 0 0 0
SMALL
GASTEIGER

@<TRIPOS>ATOM
      1 C         142.3000  143.3137  155.8671 C.3     1  UNL1        0.0294
      2 C         141.5485  144.5940  156.0819 C.3     1  UNL1        0.0666
      3 S         140.2985  144.5999  156.9109 S.3     1  UNL1       -0.0756
      4 C         140.0309  144.2011  160.7625 C.ar    1  UNL1        0.1669
      5 N         141.0359  145.3095  160.6550 N.ar    1  UNL1       -0.1282
      6 N         141.2584  145.5938  159.1991 N.ar    1  UNL1       -0.1221
      7 C         140.3910  144.6611  158.4068 C.ar    1  UNL1        0.1932
      8 N         139.6324  143.8004  159.3731 N.ar    1  UNL1       -0.2884
      9 C         138.6480  142.7273  159.0131 C.3     1  UNL1        0.1340
     10 C         143.2983  142.4032  166.5368 C.3     1  UNL1        0.0521
     11 C         142.3525  142.7022  165.4115 C.ar    1  UNL1        0.0593
     12 C         142.8684  143.3042  164.1381 C.ar    1  UNL1        0.0147
     13 C         141.9225  143.6031  163.0129 C.ar    1  UNL1        0.0028
     14 C         140.4609  143.3001  163.1611 C.ar    1  UNL1        0.0206
     15 C         139.5152  143.5991  162.0358 C.ar    1  UNL1        0.0374
     16 C         138.0536  143.2961  162.1841 C.ar    1  UNL1        0.0031
     17 C         137.5378  142.6941  163.4575 C.ar    1  UNL1        0.0016
     18 C         138.4835  142.3951  164.5827 C.ar    1  UNL1        0.0191
     19 C         139.9451  142.6981  164.4345 C.ar    1  UNL1        0.0810
     20 N         140.8909  142.3991  165.5598 N.ar    1  UNL1       -0.2497
     21 C         143.5502  143.0377  156.6486 C.3     1  UNL1        0.0730
     22 N         143.4663  142.3530  157.9806 N.3     1  UNL1       -0.2720
     23 C         144.6581  142.5228  158.8757 C.3     1  UNL1        0.0768
     24 C         144.8797  141.9705  160.2527 C.3     1  UNL1        0.0434
     25 C         143.9644  141.1123  161.0745 C.ar    1  UNL1       -0.0216
     26 C         144.5733  140.7783  162.4041 C.ar    1  UNL1        0.0337
     27 C         143.8193  139.9264  163.3816 C.ar    1  UNL1        0.1530
     28 C         142.4562  139.4083  163.0297 C.ar    1  UNL1        0.1021
     29 C         141.8473  139.7423  161.7001 C.ar    1  UNL1        0.0147
     30 C         142.6014  140.5942  160.7225 C.ar    1  UNL1       -0.0232
     31 C         141.8171  140.8065  159.4617 C.3     1  UNL1        0.0434
     32 C         142.2021  141.5893  158.2414 C.3     1  UNL1        0.0768
     33 N         141.7022  138.5564  164.0072 N.pl3   1  UNL1       -0.1875
     34 C         142.3112  138.2225  165.3367 C.3     1  UNL1        0.1628
     35 C         143.6741  138.7405  165.6888 C.3     1  UNL1        0.2287
     36 O         144.4281  139.5925  164.7112 O.3     1  UNL1       -0.4723
     37 S         140.3392  138.0384  163.6551 S.O2    1  UNL1        0.0590
     38 C         138.9761  137.5205  163.3031 C.3     1  UNL1        0.1999
     39 O         140.9633  136.8449  162.9949 O.2     1  UNL1       -0.1542
     40 O         139.7151  139.2320  164.3154 O.2     1  UNL1       -0.1542
@<TRIPOS>BOND
     1    10    11    1
     2    11    12   ar
     3    12    13   ar
     4    13    14   ar
     5    14    15   ar
     6    15     4    1
     7     4     5   ar
     8     5     6   ar
     9     6     7   ar
    10     7     3    1
    11     3     2    1
    12     2     1    1
    13     1    21    1
    14    21    22    1
    15    22    23    1
    16    23    24    1
    17    24    25    1
    18    25    26   ar
    19    26    27   ar
    20    27    28   ar
    21    28    29   ar
    22    29    30   ar
    23    30    31    1
    24    31    32    1
    25    28    33    1
    26    33    37    1
    27    37    38    1
    28    37    39    2
    29    37    40    2
    30    33    34    1
    31    34    35    1
    32    35    36    1
    33     7     8   ar
    34     8     9    1
    35    15    16   ar
    36    16    17   ar
    37    17    18   ar
    38    18    19   ar
    39    19    20   ar
    40    20    11   ar
    41    19    14   ar
    42     8     4   ar
    43    32    22    1
    44    30    25   ar
    45    36    27    1
