@<TRIPOS>MOLECULE
*****
 34 39 0 0 0
SMALL
GASTEIGER

@<TRIPOS>ATOM
      1 C         139.6665  142.6592  162.8754 C.ar    1  UNL1        0.0478
      2 C         138.3476  141.9775  162.6615 C.ar    1  UNL1        0.0176
      3 C         137.8325  141.0044  163.6802 C.ar    1  UNL1        0.0378
      4 C         138.6363  140.7130  164.9127 C.ar    1  UNL1        0.1347
      5 C         139.9552  141.3948  165.1265 C.ar    1  UNL1        0.0144
      6 C         140.4703  142.3679  164.1078 C.ar    1  UNL1        0.0133
      7 C         140.7590  141.1034  166.3590 C.3     1  UNL1        0.0480
      8 C         140.2439  140.1303  167.3776 C.3     1  UNL1        0.1060
      9 C         138.9250  139.4485  167.1639 C.3     1  UNL1        0.2215
     10 O         138.1212  139.7399  165.9314 O.3     1  UNL1       -0.4743
     11 C         140.9101  145.0087  160.4161 C.3     1  UNL1        0.1145
     12 C         139.9752  145.0933  161.5861 C.3     1  UNL1        0.1099
     13 N         140.1817  143.6324  161.8567 N.pl3   1  UNL1       -0.3045
     14 C         141.1166  143.5478  160.6867 C.3     1  UNL1        0.1099
     15 N         141.4252  145.9818  159.3975 N.3     1  UNL1       -0.1813
     16 H         141.0541  146.8975  159.6510 H       1  UNL1        0.1485
     17 O         142.5522  146.0593  157.6019 O.2     1  UNL1       -0.1575
     18 S         141.1189  145.7779  157.9433 S.O2    1  UNL1        0.0408
     19 O         139.6856  145.4965  158.2846 O.2     1  UNL1       -0.1575
     20 C         140.8126  145.5740  156.4892 C.3     1  UNL1        0.1688
     21 C         139.6580  146.2939  155.8577 C.3     1  UNL1        0.0253
     22 C         138.9694  147.5754  155.4918 C.3     1  UNL1        0.0019
     23 C         138.3467  146.2595  155.1300 C.3     1  UNL1        0.0019
     24 N         141.0477  139.8389  168.6101 N.3     1  UNL1       -0.2704
     25 C         140.8147  139.9764  170.0856 C.3     1  UNL1        0.0736
     26 C         142.1845  139.4268  170.3531 C.3     1  UNL1        0.0346
     27 C         142.4175  139.2893  168.8778 C.3     1  UNL1        0.0736
     28 C         142.0779  141.7851  166.5728 C.3     1  UNL1        0.0323
     29 C         143.2334  141.4847  165.6647 C.ar    1  UNL1       -0.0218
     30 C         144.0770  142.6034  165.1292 C.ar    1  UNL1       -0.0043
     31 C         145.2325  142.3031  164.2211 C.ar    1  UNL1       -0.0003
     32 C         145.5444  140.8839  163.8485 C.ar    1  UNL1       -0.0000
     33 C         144.7008  139.7652  164.3840 C.ar    1  UNL1       -0.0003
     34 C         143.5453  140.0656  165.2921 C.ar    1  UNL1       -0.0043
@<TRIPOS>BOND
     1    17    18    2
     2    18    19    2
     3    18    20    1
     4    20    21    1
     5    21    22    1
     6    22    23    1
     7    18    15    1
     8    15    11    1
     9    11    12    1
    10    12    13    1
    11    13     1    1
    12     1     2   ar
    13     2     3   ar
    14     3     4   ar
    15     4     5   ar
    16     5     6   ar
    17     5     7    1
    18     7    28    1
    19    28    29    1
    20    29    30   ar
    21    30    31   ar
    22    31    32   ar
    23    32    33   ar
    24    33    34   ar
    25     7     8    1
    26     8    24    1
    27    24    25    1
    28    25    26    1
    29    26    27    1
    30     8     9    1
    31     9    10    1
    32    13    14    1
    33    23    21    1
    34    14    11    1
    35     6     1   ar
    36    34    29   ar
    37    27    24    1
    38    10     4    1
    39    15    16    1
@<TRIPOS>MOLECULE
*****
 34 39 0 0 0
SMALL
GASTEIGER

@<TRIPOS>ATOM
      1 C         140.8322  138.5186  161.2307 C.ar    1  UNL1        0.0478
      2 C         139.4396  137.9923  161.4138 C.ar    1  UNL1        0.0176
      3 C         138.7501  138.1400  162.7377 C.ar    1  UNL1        0.0378
      4 C         139.4532  138.8140  163.8785 C.ar    1  UNL1        0.1347
      5 C         140.8458  139.3403  163.6953 C.ar    1  UNL1        0.0144
      6 C         141.5353  139.1926  162.3714 C.ar    1  UNL1        0.0133
      7 C         141.5490  140.0143  164.8361 C.3     1  UNL1        0.0480
      8 C         140.8595  140.1620  166.1600 C.3     1  UNL1        0.1060
      9 C         139.4668  139.6357  166.3432 C.3     1  UNL1        0.2215
     10 O         138.7637  138.9617  165.2024 O.3     1  UNL1       -0.4743
     11 C         142.4969  138.1621  158.0344 C.3     1  UNL1        0.1145
     12 C         142.8684  137.8835  159.4608 C.3     1  UNL1        0.1099
     13 N         141.5217  138.3710  159.9067 N.pl3   1  UNL1       -0.3045
     14 C         141.1502  138.6495  158.4804 C.3     1  UNL1        0.1099
     15 N         143.1864  138.0144  156.7106 N.3     1  UNL1       -0.1813
     16 H         142.6250  138.5233  156.0277 H       1  UNL1        0.1485
     17 O         144.8032  137.0723  155.7111 O.2     1  UNL1       -0.1575
     18 S         143.4295  136.6487  156.1397 S.O2    1  UNL1        0.0408
     19 O         142.0560  136.2250  156.5683 O.2     1  UNL1       -0.1575
     20 C         143.6727  135.2830  155.5689 C.3     1  UNL1        0.1688
     21 C         143.7056  134.0870  156.4736 C.3     1  UNL1        0.0253
     22 C         144.2176  133.4054  157.7078 C.3     1  UNL1        0.0019
     23 C         143.2505  132.6968  156.8062 C.3     1  UNL1        0.0019
     24 N         141.5627  140.8360  167.3007 N.3     1  UNL1       -0.2704
     25 C         142.5839  140.4141  168.3153 C.3     1  UNL1        0.0736
     26 C         142.5571  141.7892  168.9140 C.3     1  UNL1        0.0346
     27 C         141.5360  142.2111  167.8995 C.3     1  UNL1        0.0736
     28 C         142.9416  140.5406  164.6529 C.3     1  UNL1        0.0323
     29 C         143.1670  142.0088  164.4433 C.ar    1  UNL1       -0.0218
     30 C         142.4131  142.7377  163.3708 C.ar    1  UNL1       -0.0043
     31 C         142.6384  144.2057  163.1611 C.ar    1  UNL1       -0.0003
     32 C         143.6179  144.9449  164.0239 C.ar    1  UNL1       -0.0000
     33 C         144.3719  144.2160  165.0964 C.ar    1  UNL1       -0.0003
     34 C         144.1464  142.7479  165.3060 C.ar    1  UNL1       -0.0043
@<TRIPOS>BOND
     1    17    18    2
     2    18    19    2
     3    18    20    1
     4    20    21    1
     5    21    22    1
     6    22    23    1
     7    18    15    1
     8    15    11    1
     9    11    12    1
    10    12    13    1
    11    13     1    1
    12     1     2   ar
    13     2     3   ar
    14     3     4   ar
    15     4     5   ar
    16     5     6   ar
    17     5     7    1
    18     7    28    1
    19    28    29    1
    20    29    30   ar
    21    30    31   ar
    22    31    32   ar
    23    32    33   ar
    24    33    34   ar
    25     7     8    1
    26     8    24    1
    27    24    25    1
    28    25    26    1
    29    26    27    1
    30     8     9    1
    31     9    10    1
    32    13    14    1
    33    23    21    1
    34    14    11    1
    35     6     1   ar
    36    34    29   ar
    37    27    24    1
    38    10     4    1
    39    15    16    1
@<TRIPOS>MOLECULE
*****
 34 39 0 0 0
SMALL
GASTEIGER

@<TRIPOS>ATOM
      1 C         142.8643  143.2891  163.3415 C.ar    1  UNL1        0.0478
      2 C         144.2332  143.6746  163.8184 C.ar    1  UNL1        0.0176
      3 C         144.6017  143.4986  165.2617 C.ar    1  UNL1        0.0378
      4 C         143.6013  142.9371  166.2281 C.ar    1  UNL1        0.1347
      5 C         142.2324  142.5517  165.7512 C.ar    1  UNL1        0.0144
      6 C         141.8639  142.7277  164.3079 C.ar    1  UNL1        0.0133
      7 C         141.2320  141.9902  166.7176 C.3     1  UNL1        0.0480
      8 C         141.6005  141.8142  168.1609 C.3     1  UNL1        0.1060
      9 C         142.9695  142.1996  168.6379 C.3     1  UNL1        0.2215
     10 O         143.9699  142.7611  167.6715 O.3     1  UNL1       -0.4743
     11 C         141.9744  143.7141  159.8569 C.3     1  UNL1        0.1145
     12 C         141.2368  143.8106  161.1594 C.3     1  UNL1        0.1099
     13 N         142.4957  143.4651  161.8981 N.pl3   1  UNL1       -0.3045
     14 C         143.2334  143.3686  160.5956 C.3     1  UNL1        0.1099
     15 N         141.6059  143.8901  158.4137 N.3     1  UNL1       -0.1813
     16 H         142.4765  143.8689  157.8827 H       1  UNL1        0.1485
     17 O         139.6105  144.2996  157.8210 O.2     1  UNL1       -0.1575
     18 S         140.8602  145.1151  157.9740 S.O2    1  UNL1        0.0408
     19 O         142.1097  145.9307  158.1270 O.2     1  UNL1       -0.1575
     20 C         140.1145  146.3401  157.5344 C.3     1  UNL1        0.1688
     21 C         139.8206  146.5575  156.0796 C.3     1  UNL1        0.0253
     22 C         140.2894  146.6327  154.6566 C.3     1  UNL1        0.0019
     23 C         138.8429  146.8589  154.9826 C.3     1  UNL1        0.0019
     24 N         140.6001  141.2527  169.1273 N.3     1  UNL1       -0.2704
     25 C         139.5164  141.8314  169.9881 C.3     1  UNL1        0.0736
     26 C         139.1853  140.4587  170.4940 C.3     1  UNL1        0.0346
     27 C         140.2689  139.8801  169.6333 C.3     1  UNL1        0.0736
     28 C         139.8631  141.6047  166.2407 C.3     1  UNL1        0.0323
     29 C         139.5499  140.1686  165.9414 C.ar    1  UNL1       -0.0218
     30 C         138.3529  139.5159  166.5670 C.ar    1  UNL1       -0.0043
     31 C         138.0397  138.0799  166.2677 C.ar    1  UNL1       -0.0003
     32 C         138.9235  137.2964  165.3429 C.ar    1  UNL1       -0.0000
     33 C         140.1204  137.9491  164.7173 C.ar    1  UNL1       -0.0003
     34 C         140.4336  139.3852  165.0166 C.ar    1  UNL1       -0.0043
@<TRIPOS>BOND
     1    17    18    2
     2    18    19    2
     3    18    20    1
     4    20    21    1
     5    21    22    1
     6    22    23    1
     7    18    15    1
     8    15    11    1
     9    11    12    1
    10    12    13    1
    11    13     1    1
    12     1     2   ar
    13     2     3   ar
    14     3     4   ar
    15     4     5   ar
    16     5     6   ar
    17     5     7    1
    18     7    28    1
    19    28    29    1
    20    29    30   ar
    21    30    31   ar
    22    31    32   ar
    23    32    33   ar
    24    33    34   ar
    25     7     8    1
    26     8    24    1
    27    24    25    1
    28    25    26    1
    29    26    27    1
    30     8     9    1
    31     9    10    1
    32    13    14    1
    33    23    21    1
    34    14    11    1
    35     6     1   ar
    36    34    29   ar
    37    27    24    1
    38    10     4    1
    39    15    16    1
@<TRIPOS>MOLECULE
*****
 34 39 0 0 0
SMALL
GASTEIGER

@<TRIPOS>ATOM
      1 C         142.3263  139.3887  164.2243 C.ar    1  UNL1        0.0478
      2 C         142.4441  138.1592  163.3732 C.ar    1  UNL1        0.0176
      3 C         142.2952  138.2608  161.8841 C.ar    1  UNL1        0.0378
      4 C         142.0285  139.5919  161.2461 C.ar    1  UNL1        0.1347
      5 C         141.9107  140.8214  162.0972 C.ar    1  UNL1        0.0144
      6 C         142.0596  140.7198  163.5863 C.ar    1  UNL1        0.0133
      7 C         141.6440  142.1525  161.4592 C.3     1  UNL1        0.0480
      8 C         141.4951  142.2541  159.9701 C.3     1  UNL1        0.1060
      9 C         141.6129  141.0246  159.1189 C.3     1  UNL1        0.2215
     10 O         141.8796  139.6935  159.7569 O.3     1  UNL1       -0.4743
     11 C         142.6857  139.1436  167.8195 C.3     1  UNL1        0.1145
     12 C         141.7125  139.8115  166.8939 C.3     1  UNL1        0.1099
     13 N         142.4752  139.2872  165.7135 N.pl3   1  UNL1       -0.3045
     14 C         143.4485  138.6193  166.6391 C.3     1  UNL1        0.1099
     15 N         142.8346  139.0421  169.3086 N.3     1  UNL1       -0.1813
     16 H         142.3167  138.2132  169.6004 H       1  UNL1        0.1485
     17 O         141.0341  139.5176  170.3247 O.2     1  UNL1       -0.1575
     18 S         142.3781  140.1694  170.1866 S.O2    1  UNL1        0.0408
     19 O         143.7220  140.8212  170.0485 O.2     1  UNL1       -0.1575
     20 C         141.9216  141.2967  171.0645 C.3     1  UNL1        0.1688
     21 C         140.9668  142.3233  170.5313 C.3     1  UNL1        0.0253
     22 C         139.6462  143.0310  170.6040 C.3     1  UNL1        0.0019
     23 C         140.6337  143.3940  169.5349 C.3     1  UNL1        0.0019
     24 N         141.2284  143.5852  159.3321 N.3     1  UNL1       -0.2704
     25 C         142.0384  144.5558  158.5246 C.3     1  UNL1        0.0736
     26 C         140.8512  145.4677  158.4299 C.3     1  UNL1        0.0346
     27 C         140.0412  144.4972  159.2373 C.3     1  UNL1        0.0736
     28 C         141.5262  143.3820  162.3103 C.3     1  UNL1        0.0323
     29 C         140.2622  143.6480  163.0730 C.ar    1  UNL1       -0.0218
     30 C         138.9496  143.1472  162.5473 C.ar    1  UNL1       -0.0043
     31 C         137.6856  143.4131  163.3100 C.ar    1  UNL1       -0.0003
     32 C         137.7342  144.1799  164.5983 C.ar    1  UNL1       -0.0000
     33 C         139.0468  144.6807  165.1240 C.ar    1  UNL1       -0.0003
     34 C         140.3108  144.4147  164.3613 C.ar    1  UNL1       -0.0043
@<TRIPOS>BOND
     1    17    18    2
     2    18    19    2
     3    18    20    1
     4    20    21    1
     5    21    22    1
     6    22    23    1
     7    18    15    1
     8    15    11    1
     9    11    12    1
    10    12    13    1
    11    13     1    1
    12     1     2   ar
    13     2     3   ar
    14     3     4   ar
    15     4     5   ar
    16     5     6   ar
    17     5     7    1
    18     7    28    1
    19    28    29    1
    20    29    30   ar
    21    30    31   ar
    22    31    32   ar
    23    32    33   ar
    24    33    34   ar
    25     7     8    1
    26     8    24    1
    27    24    25    1
    28    25    26    1
    29    26    27    1
    30     8     9    1
    31     9    10    1
    32    13    14    1
    33    23    21    1
    34    14    11    1
    35     6     1   ar
    36    34    29   ar
    37    27    24    1
    38    10     4    1
    39    15    16    1
@<TRIPOS>MOLECULE
*****
 34 39 0 0 0
SMALL
GASTEIGER

@<TRIPOS>ATOM
      1 C         143.7720  140.7879  163.2432 C.ar    1  UNL1        0.0478
      2 C         144.4434  139.4875  163.5719 C.ar    1  UNL1        0.0176
      3 C         144.2897  138.8886  164.9385 C.ar    1  UNL1        0.0378
      4 C         143.4645  139.5901  165.9763 C.ar    1  UNL1        0.1347
      5 C         142.7931  140.8905  165.6476 C.ar    1  UNL1        0.0144
      6 C         142.9468  141.4894  164.2810 C.ar    1  UNL1        0.0133
      7 C         141.9680  141.5920  166.6854 C.3     1  UNL1        0.0480
      8 C         141.8142  140.9931  168.0520 C.3     1  UNL1        0.1060
      9 C         142.4857  139.6926  168.3808 C.3     1  UNL1        0.2215
     10 O         143.3108  138.9911  167.3430 O.3     1  UNL1       -0.4743
     11 C         144.1429  142.2339  159.9438 C.3     1  UNL1        0.1145
     12 C         143.2820  141.1603  160.5407 C.3     1  UNL1        0.1099
     13 N         143.9257  141.3869  161.8765 N.pl3   1  UNL1       -0.3045
     14 C         144.7866  142.4604  161.2796 C.3     1  UNL1        0.1099
     15 N         144.2966  142.8328  158.5772 N.3     1  UNL1       -0.1813
     16 H         143.3555  143.0097  158.2257 H       1  UNL1        0.1485
     17 O         143.7248  141.4974  157.0311 O.2     1  UNL1       -0.1575
     18 S         145.0245  142.0776  157.5048 S.O2    1  UNL1        0.0408
     19 O         146.3242  142.6577  157.9784 O.2     1  UNL1       -0.1575
     20 C         145.7524  141.3224  156.4325 C.3     1  UNL1        0.1688
     21 C         146.9367  141.9415  155.7512 C.3     1  UNL1        0.0253
     22 C         147.5074  142.9561  154.8051 C.3     1  UNL1        0.0019
     23 C         148.4172  141.9995  155.5172 C.3     1  UNL1        0.0019
     24 N         140.9891  141.6945  169.0898 N.3     1  UNL1       -0.2704
     25 C         139.6821  141.4166  169.7716 C.3     1  UNL1        0.0736
     26 C         139.8222  142.6866  170.5575 C.3     1  UNL1        0.0346
     27 C         141.1290  142.9644  169.8758 C.3     1  UNL1        0.0736
     28 C         141.2965  142.8923  166.3566 C.3     1  UNL1        0.0323
     29 C         140.0055  142.8978  165.5928 C.ar    1  UNL1       -0.0218
     30 C         139.2844  141.6091  165.3296 C.ar    1  UNL1       -0.0043
     31 C         137.9935  141.6145  164.5658 C.ar    1  UNL1       -0.0003
     32 C         137.4235  142.9086  164.0653 C.ar    1  UNL1       -0.0000
     33 C         138.1446  144.1973  164.3285 C.ar    1  UNL1       -0.0003
     34 C         139.4356  144.1918  165.0923 C.ar    1  UNL1       -0.0043
@<TRIPOS>BOND
     1    17    18    2
     2    18    19    2
     3    18    20    1
     4    20    21    1
     5    21    22    1
     6    22    23    1
     7    18    15    1
     8    15    11    1
     9    11    12    1
    10    12    13    1
    11    13     1    1
    12     1     2   ar
    13     2     3   ar
    14     3     4   ar
    15     4     5   ar
    16     5     6   ar
    17     5     7    1
    18     7    28    1
    19    28    29    1
    20    29    30   ar
    21    30    31   ar
    22    31    32   ar
    23    32    33   ar
    24    33    34   ar
    25     7     8    1
    26     8    24    1
    27    24    25    1
    28    25    26    1
    29    26    27    1
    30     8     9    1
    31     9    10    1
    32    13    14    1
    33    23    21    1
    34    14    11    1
    35     6     1   ar
    36    34    29   ar
    37    27    24    1
    38    10     4    1
    39    15    16    1
@<TRIPOS>MOLECULE
*****
 34 39 0 0 0
SMALL
GASTEIGER

@<TRIPOS>ATOM
      1 C         140.8546  138.6634  162.6257 C.ar    1  UNL1        0.0478
      2 C         139.6324  137.8534  162.9420 C.ar    1  UNL1        0.0176
      3 C         138.9900  137.9615  164.2931 C.ar    1  UNL1        0.0378
      4 C         139.5698  138.8796  165.3279 C.ar    1  UNL1        0.1347
      5 C         140.7920  139.6896  165.0116 C.ar    1  UNL1        0.0144
      6 C         141.4344  139.5815  163.6605 C.ar    1  UNL1        0.0133
      7 C         141.3718  140.6077  166.0465 C.3     1  UNL1        0.0480
      8 C         140.7294  140.7158  167.3976 C.3     1  UNL1        0.1060
      9 C         139.5072  139.9058  167.7140 C.3     1  UNL1        0.2215
     10 O         138.9274  138.9877  166.6791 O.3     1  UNL1       -0.4743
     11 C         142.4056  138.4024  159.3637 C.3     1  UNL1        0.1145
     12 C         142.5434  137.6699  160.6653 C.3     1  UNL1        0.1099
     13 N         141.4970  138.5553  161.2745 N.pl3   1  UNL1       -0.3045
     14 C         141.3592  139.2879  159.9728 C.3     1  UNL1        0.1099
     15 N         143.0480  138.2943  158.0125 N.3     1  UNL1       -0.1813
     16 H         142.9701  139.2125  157.5752 H       1  UNL1        0.1485
     17 O         143.9321  137.0928  156.5042 O.2     1  UNL1       -0.1575
     18 S         142.5370  137.2956  157.0168 S.O2    1  UNL1        0.0408
     19 O         141.1420  137.4983  157.5293 O.2     1  UNL1       -0.1575
     20 C         142.0260  136.2969  156.0211 C.3     1  UNL1        0.1688
     21 C         142.3559  134.8424  156.1808 C.3     1  UNL1        0.0253
     22 C         142.2657  133.4281  155.6889 C.3     1  UNL1        0.0019
     23 C         143.0176  133.7371  156.9495 C.3     1  UNL1        0.0019
     24 N         141.3092  141.6340  168.4324 N.3     1  UNL1       -0.2704
     25 C         140.9974  143.0195  168.9154 C.3     1  UNL1        0.0736
     26 C         142.1292  142.9324  169.8959 C.3     1  UNL1        0.0346
     27 C         142.4411  141.5470  169.4129 C.3     1  UNL1        0.0736
     28 C         142.5940  141.4178  165.7301 C.3     1  UNL1        0.0323
     29 C         142.4555  142.7583  165.0715 C.ar    1  UNL1       -0.0218
     30 C         143.6797  143.5446  164.7063 C.ar    1  UNL1       -0.0043
     31 C         143.5413  144.8851  164.0477 C.ar    1  UNL1       -0.0003
     32 C         142.1787  145.4394  163.7541 C.ar    1  UNL1       -0.0000
     33 C         140.9545  144.6532  164.1193 C.ar    1  UNL1       -0.0003
     34 C         141.0930  143.3126  164.7779 C.ar    1  UNL1       -0.0043
@<TRIPOS>BOND
     1    17    18    2
     2    18    19    2
     3    18    20    1
     4    20    21    1
     5    21    22    1
     6    22    23    1
     7    18    15    1
     8    15    11    1
     9    11    12    1
    10    12    13    1
    11    13     1    1
    12     1     2   ar
    13     2     3   ar
    14     3     4   ar
    15     4     5   ar
    16     5     6   ar
    17     5     7    1
    18     7    28    1
    19    28    29    1
    20    29    30   ar
    21    30    31   ar
    22    31    32   ar
    23    32    33   ar
    24    33    34   ar
    25     7     8    1
    26     8    24    1
    27    24    25    1
    28    25    26    1
    29    26    27    1
    30     8     9    1
    31     9    10    1
    32    13    14    1
    33    23    21    1
    34    14    11    1
    35     6     1   ar
    36    34    29   ar
    37    27    24    1
    38    10     4    1
    39    15    16    1
@<TRIPOS>MOLECULE
*****
 34 39 0 0 0
SMALL
GASTEIGER

@<TRIPOS>ATOM
      1 C         140.8391  138.5819  163.4164 C.ar    1  UNL1        0.0478
      2 C         139.5640  137.8798  163.7782 C.ar    1  UNL1        0.0176
      3 C         138.9392  138.1054  165.1231 C.ar    1  UNL1        0.0378
      4 C         139.5895  139.0332  166.1061 C.ar    1  UNL1        0.1347
      5 C         140.8647  139.7353  165.7442 C.ar    1  UNL1        0.0144
      6 C         141.4894  139.5097  164.3994 C.ar    1  UNL1        0.0133
      7 C         141.5150  140.6631  166.7272 C.3     1  UNL1        0.0480
      8 C         140.8902  140.8887  168.0721 C.3     1  UNL1        0.1060
      9 C         139.6150  140.1865  168.4340 C.3     1  UNL1        0.2215
     10 O         138.9647  139.2588  167.4510 O.3     1  UNL1       -0.4743
     11 C         142.3477  138.0373  160.1695 C.3     1  UNL1        0.1145
     12 C         142.8281  137.9614  161.5885 C.3     1  UNL1        0.1099
     13 N         141.4640  138.3563  162.0714 N.pl3   1  UNL1       -0.3045
     14 C         140.9836  138.4322  160.6525 C.3     1  UNL1        0.1099
     15 N         142.9726  137.8117  158.8247 N.3     1  UNL1       -0.1813
     16 H         143.9189  137.4705  158.9933 H       1  UNL1        0.1485
     17 O         144.0619  139.6311  158.7656 O.2     1  UNL1       -0.1575
     18 S         143.0886  138.9473  157.8516 S.O2    1  UNL1        0.0408
     19 O         142.1154  138.2637  156.9376 O.2     1  UNL1       -0.1575
     20 C         143.2048  140.0829  156.8785 C.3     1  UNL1        0.1688
     21 C         144.5447  140.4545  156.3159 C.3     1  UNL1        0.0253
     22 C         145.7023  141.4053  156.2372 C.3     1  UNL1        0.0019
     23 C         145.7080  140.1474  155.4201 C.3     1  UNL1        0.0019
     24 N         141.5406  141.8165  169.0551 N.3     1  UNL1       -0.2704
     25 C         141.2876  143.2218  169.5147 C.3     1  UNL1        0.0736
     26 C         142.4603  143.1285  170.4453 C.3     1  UNL1        0.0346
     27 C         142.7132  141.7233  169.9857 C.3     1  UNL1        0.0736
     28 C         142.7901  141.3652  166.3654 C.3     1  UNL1        0.0323
     29 C         142.7492  142.6146  165.5363 C.ar    1  UNL1       -0.0218
     30 C         144.0252  143.3090  165.1627 C.ar    1  UNL1       -0.0043
     31 C         143.9843  144.5583  164.3336 C.ar    1  UNL1       -0.0003
     32 C         142.6673  145.1134  163.8780 C.ar    1  UNL1       -0.0000
     33 C         141.3912  144.4190  164.2517 C.ar    1  UNL1       -0.0003
     34 C         141.4322  143.1696  165.0808 C.ar    1  UNL1       -0.0043
@<TRIPOS>BOND
     1    17    18    2
     2    18    19    2
     3    18    20    1
     4    20    21    1
     5    21    22    1
     6    22    23    1
     7    18    15    1
     8    15    11    1
     9    11    12    1
    10    12    13    1
    11    13     1    1
    12     1     2   ar
    13     2     3   ar
    14     3     4   ar
    15     4     5   ar
    16     5     6   ar
    17     5     7    1
    18     7    28    1
    19    28    29    1
    20    29    30   ar
    21    30    31   ar
    22    31    32   ar
    23    32    33   ar
    24    33    34   ar
    25     7     8    1
    26     8    24    1
    27    24    25    1
    28    25    26    1
    29    26    27    1
    30     8     9    1
    31     9    10    1
    32    13    14    1
    33    23    21    1
    34    14    11    1
    35     6     1   ar
    36    34    29   ar
    37    27    24    1
    38    10     4    1
    39    15    16    1
@<TRIPOS>MOLECULE
*****
 34 39 0 0 0
SMALL
GASTEIGER

@<TRIPOS>ATOM
      1 C         143.3542  141.1476  162.0393 C.ar    1  UNL1        0.0478
      2 C         144.0128  139.8088  161.8848 C.ar    1  UNL1        0.0176
      3 C         144.1336  138.8918  163.0656 C.ar    1  UNL1        0.0378
      4 C         143.5958  139.3134  164.4009 C.ar    1  UNL1        0.1347
      5 C         142.9372  140.6522  164.5554 C.ar    1  UNL1        0.0144
      6 C         142.8164  141.5693  163.3746 C.ar    1  UNL1        0.0133
      7 C         142.3994  141.0739  165.8906 C.3     1  UNL1        0.0480
      8 C         142.5202  140.1568  167.0714 C.3     1  UNL1        0.1060
      9 C         143.1788  138.8180  166.9170 C.3     1  UNL1        0.2215
     10 O         143.7167  138.3963  165.5817 O.3     1  UNL1       -0.4743
     11 C         143.0625  143.3617  159.1885 C.3     1  UNL1        0.1145
     12 C         143.4203  141.9173  159.3775 C.3     1  UNL1        0.1099
     13 N         143.2334  142.0648  160.8585 N.pl3   1  UNL1       -0.3045
     14 C         142.8756  143.5092  160.6695 C.3     1  UNL1        0.1099
     15 N         142.9417  144.2788  158.0077 N.3     1  UNL1       -0.1813
     16 H         143.7356  144.9179  158.0488 H       1  UNL1        0.1485
     17 O         140.8861  143.8850  157.6619 O.2     1  UNL1       -0.1575
     18 S         141.7140  145.1236  157.8367 S.O2    1  UNL1        0.0408
     19 O         142.5419  146.3621  158.0115 O.2     1  UNL1       -0.1575
     20 C         140.4864  145.9683  157.6656 C.3     1  UNL1        0.1688
     21 C         140.0405  146.3740  156.2921 C.3     1  UNL1        0.0253
     22 C         140.3670  146.8581  154.9104 C.3     1  UNL1        0.0019
     23 C         138.9416  146.5925  155.2947 C.3     1  UNL1        0.0019
     24 N         141.9824  140.5785  168.4067 N.3     1  UNL1       -0.2704
     25 C         140.6501  140.4885  169.0901 C.3     1  UNL1        0.0736
     26 C         141.2218  141.1748  170.2950 C.3     1  UNL1        0.0346
     27 C         142.5540  141.2648  169.6118 C.3     1  UNL1        0.0736
     28 C         141.7408  142.4126  166.0451 C.3     1  UNL1        0.0323
     29 C         140.3625  142.6381  165.4978 C.ar    1  UNL1       -0.0218
     30 C         139.8885  144.0318  165.2098 C.ar    1  UNL1       -0.0043
     31 C         138.5103  144.2573  164.6625 C.ar    1  UNL1       -0.0003
     32 C         137.6059  143.0890  164.4031 C.ar    1  UNL1       -0.0000
     33 C         138.0798  141.6952  164.6911 C.ar    1  UNL1       -0.0003
     34 C         139.4582  141.4698  165.2384 C.ar    1  UNL1       -0.0043
@<TRIPOS>BOND
     1    17    18    2
     2    18    19    2
     3    18    20    1
     4    20    21    1
     5    21    22    1
     6    22    23    1
     7    18    15    1
     8    15    11    1
     9    11    12    1
    10    12    13    1
    11    13     1    1
    12     1     2   ar
    13     2     3   ar
    14     3     4   ar
    15     4     5   ar
    16     5     6   ar
    17     5     7    1
    18     7    28    1
    19    28    29    1
    20    29    30   ar
    21    30    31   ar
    22    31    32   ar
    23    32    33   ar
    24    33    34   ar
    25     7     8    1
    26     8    24    1
    27    24    25    1
    28    25    26    1
    29    26    27    1
    30     8     9    1
    31     9    10    1
    32    13    14    1
    33    23    21    1
    34    14    11    1
    35     6     1   ar
    36    34    29   ar
    37    27    24    1
    38    10     4    1
    39    15    16    1
@<TRIPOS>MOLECULE
*****
 34 39 0 0 0
SMALL
GASTEIGER

@<TRIPOS>ATOM
      1 C         141.3040  139.1878  162.1066 C.ar    1  UNL1        0.0478
      2 C         142.6991  138.6521  162.2362 C.ar    1  UNL1        0.0176
      3 C         143.3796  138.6479  163.5728 C.ar    1  UNL1        0.0378
      4 C         142.6651  139.1794  164.7799 C.ar    1  UNL1        0.1347
      5 C         141.2701  139.7150  164.6504 C.ar    1  UNL1        0.0144
      6 C         140.5895  139.7192  163.3137 C.ar    1  UNL1        0.0133
      7 C         140.5556  140.2464  165.8575 C.3     1  UNL1        0.0480
      8 C         141.2362  140.2422  167.1941 C.3     1  UNL1        0.1060
      9 C         142.6313  139.7065  167.3238 C.3     1  UNL1        0.2215
     10 O         143.3458  139.1751  166.1167 O.3     1  UNL1       -0.4743
     11 C         139.6608  139.1980  158.8795 C.3     1  UNL1        0.1145
     12 C         140.7672  139.9916  159.5089 C.3     1  UNL1        0.1099
     13 N         140.6233  139.1920  160.7699 N.pl3   1  UNL1       -0.3045
     14 C         139.5170  138.3984  160.1404 C.3     1  UNL1        0.1099
     15 N         138.9802  139.2023  157.5428 N.3     1  UNL1       -0.1813
     16 H         139.7137  139.1210  156.8387 H       1  UNL1        0.1485
     17 O         138.9018  140.5015  155.8676 O.2     1  UNL1       -0.1575
     18 S         138.1220  140.3654  157.1418 S.O2    1  UNL1        0.0408
     19 O         137.3423  140.2294  158.4159 O.2     1  UNL1       -0.1575
     20 C         137.2639  141.5285  156.7408 C.3     1  UNL1        0.1688
     21 C         135.9552  141.2911  156.0472 C.3     1  UNL1        0.0253
     22 C         134.6211  140.6078  155.9888 C.3     1  UNL1        0.0019
     23 C         135.0226  141.5632  154.9043 C.3     1  UNL1        0.0019
     24 N         140.5217  140.7736  168.4012 N.3     1  UNL1       -0.2704
     25 C         140.4323  142.1091  169.0785 C.3     1  UNL1        0.0736
     26 C         139.5112  141.5252  170.1083 C.3     1  UNL1        0.0346
     27 C         139.6006  140.1898  169.4312 C.3     1  UNL1        0.0736
     28 C         139.1605  140.7820  165.7279 C.3     1  UNL1        0.0323
     29 C         138.9238  142.1044  165.0605 C.ar    1  UNL1       -0.0218
     30 C         137.9241  142.2145  163.9476 C.ar    1  UNL1       -0.0043
     31 C         137.6874  143.5368  163.2802 C.ar    1  UNL1       -0.0003
     32 C         138.4503  144.7491  163.7257 C.ar    1  UNL1       -0.0000
     33 C         139.4500  144.6390  164.8386 C.ar    1  UNL1       -0.0003
     34 C         139.6867  143.3166  165.5060 C.ar    1  UNL1       -0.0043
@<TRIPOS>BOND
     1    17    18    2
     2    18    19    2
     3    18    20    1
     4    20    21    1
     5    21    22    1
     6    22    23    1
     7    18    15    1
     8    15    11    1
     9    11    12    1
    10    12    13    1
    11    13     1    1
    12     1     2   ar
    13     2     3   ar
    14     3     4   ar
    15     4     5   ar
    16     5     6   ar
    17     5     7    1
    18     7    28    1
    19    28    29    1
    20    29    30   ar
    21    30    31   ar
    22    31    32   ar
    23    32    33   ar
    24    33    34   ar
    25     7     8    1
    26     8    24    1
    27    24    25    1
    28    25    26    1
    29    26    27    1
    30     8     9    1
    31     9    10    1
    32    13    14    1
    33    23    21    1
    34    14    11    1
    35     6     1   ar
    36    34    29   ar
    37    27    24    1
    38    10     4    1
    39    15    16    1
