@<TRIPOS>MOLECULE
*****
 23 25 0 0 0
SMALL
GASTEIGER

@<TRIPOS>ATOM
      1 C         138.1173  140.2364  164.1727 C.ar    1  UNL1       -0.0150
      2 C         137.9266  139.7493  162.7668 C.ar    1  UNL1        0.0167
      3 C         137.7053  140.7326  161.6559 C.ar    1  UNL1        0.0983
      4 N         137.6746  142.2030  161.9508 N.ar    1  UNL1       -0.2445
      5 C         137.8653  142.6901  163.3566 C.ar    1  UNL1        0.1023
      6 C         138.0867  141.7068  164.4676 C.ar    1  UNL1        0.0145
      7 C         138.3387  139.2531  165.2836 C.3     1  UNL1        0.0527
      8 C         142.7645  140.1391  169.2367 C.3     1  UNL1        0.0310
      9 C         141.6580  139.9176  168.2484 C.ar    1  UNL1       -0.0219
     10 C         141.9795  139.5039  166.8429 C.ar    1  UNL1       -0.0046
     11 C         140.8730  139.2824  165.8546 C.ar    1  UNL1       -0.0043
     12 C         139.4451  139.4746  166.2719 C.ar    1  UNL1       -0.0178
     13 C         139.1237  139.8883  167.6774 C.ar    1  UNL1       -0.0043
     14 C         140.2301  140.1098  168.6657 C.ar    1  UNL1       -0.0046
     15 C         137.8347  144.1605  163.6515 C.3     1  UNL1        0.2508
     16 O         138.7803  144.7432  164.6596 O.3     1  UNL1       -0.4690
     17 C         140.2189  144.3185  164.6715 C.ar    1  UNL1        0.1391
     18 C         141.1992  144.9639  163.7374 C.ar    1  UNL1        0.0366
     19 C         142.6378  144.5392  163.7494 C.ar    1  UNL1       -0.0011
     20 C         143.0960  143.4691  164.6955 C.ar    1  UNL1       -0.0217
     21 C         144.5346  143.0444  164.7074 C.3     1  UNL1        0.0310
     22 C         142.1157  142.8238  165.6295 C.ar    1  UNL1       -0.0011
     23 C         140.6771  143.2485  165.6175 C.ar    1  UNL1        0.0366
@<TRIPOS>BOND
     1     8     9    1
     2     9    10   ar
     3    10    11   ar
     4    11    12   ar
     5    12     7    1
     6     7     1    1
     7     1     2   ar
     8     2     3   ar
     9     3     4   ar
    10     4     5   ar
    11     5    15    1
    12    15    16    1
    13    16    17    1
    14    17    18   ar
    15    18    19   ar
    16    19    20   ar
    17    20    21    1
    18    20    22   ar
    19    22    23   ar
    20     5     6   ar
    21    12    13   ar
    22    13    14   ar
    23    14     9   ar
    24     6     1   ar
    25    23    17   ar
@<TRIPOS>MOLECULE
*****
 23 25 0 0 0
SMALL
GASTEIGER

@<TRIPOS>ATOM
      1 C         141.7784  143.2651  164.4364 C.ar    1  UNL1       -0.0150
      2 C         141.5617  143.9479  163.1185 C.ar    1  UNL1        0.0167
      3 C         142.6493  143.9470  162.0856 C.ar    1  UNL1        0.0983
      4 N         143.9538  143.2634  162.3705 N.ar    1  UNL1       -0.2445
      5 C         144.1705  142.5807  163.6884 C.ar    1  UNL1        0.1023
      6 C         143.0828  142.5815  164.7214 C.ar    1  UNL1        0.0145
      7 C         140.6907  143.2659  165.4693 C.3     1  UNL1        0.0527
      8 C         137.7794  138.1819  166.7643 C.3     1  UNL1        0.0310
      9 C         138.5072  139.4529  166.4406 C.ar    1  UNL1       -0.0219
     10 C         138.2647  140.1434  165.1313 C.ar    1  UNL1       -0.0046
     11 C         138.9926  141.4144  164.8075 C.ar    1  UNL1       -0.0043
     12 C         139.9629  141.9949  165.7931 C.ar    1  UNL1       -0.0178
     13 C         140.2054  141.3044  167.1024 C.ar    1  UNL1       -0.0043
     14 C         139.4776  140.0334  167.4262 C.ar    1  UNL1       -0.0046
     15 C         145.4749  141.8971  163.9733 C.3     1  UNL1        0.2508
     16 O         145.5428  140.3993  164.0175 O.3     1  UNL1       -0.4690
     17 C         144.2813  139.5940  164.1171 C.ar    1  UNL1        0.1391
     18 C         143.6790  139.3066  165.4606 C.ar    1  UNL1        0.0366
     19 C         142.4175  138.5013  165.5602 C.ar    1  UNL1       -0.0011
     20 C         141.7582  137.9833  164.3164 C.ar    1  UNL1       -0.0217
     21 C         140.4966  137.1779  164.4160 C.3     1  UNL1        0.0310
     22 C         142.3604  138.2706  162.9730 C.ar    1  UNL1       -0.0011
     23 C         143.6220  139.0760  162.8734 C.ar    1  UNL1        0.0366
@<TRIPOS>BOND
     1     8     9    1
     2     9    10   ar
     3    10    11   ar
     4    11    12   ar
     5    12     7    1
     6     7     1    1
     7     1     2   ar
     8     2     3   ar
     9     3     4   ar
    10     4     5   ar
    11     5    15    1
    12    15    16    1
    13    16    17    1
    14    17    18   ar
    15    18    19   ar
    16    19    20   ar
    17    20    21    1
    18    20    22   ar
    19    22    23   ar
    20     5     6   ar
    21    12    13   ar
    22    13    14   ar
    23    14     9   ar
    24     6     1   ar
    25    23    17   ar
@<TRIPOS>MOLECULE
*****
 23 25 0 0 0
SMALL
GASTEIGER

@<TRIPOS>ATOM
      1 C         139.2753  138.4667  164.9896 C.ar    1  UNL1       -0.0150
      2 C         140.4305  137.5268  164.8101 C.ar    1  UNL1        0.0167
      3 C         140.9761  137.2625  163.4381 C.ar    1  UNL1        0.0983
      4 N         140.3666  137.9380  162.2455 N.ar    1  UNL1       -0.2445
      5 C         139.2114  138.8778  162.4250 C.ar    1  UNL1        0.1023
      6 C         138.6658  139.1422  163.7971 C.ar    1  UNL1        0.0145
      7 C         138.7297  138.7311  166.3616 C.3     1  UNL1        0.0527
      8 C         140.8508  143.3137  169.6020 C.3     1  UNL1        0.0310
      9 C         140.3206  142.1681  168.7919 C.ar    1  UNL1       -0.0219
     10 C         140.4310  142.1926  167.2962 C.ar    1  UNL1       -0.0046
     11 C         139.9008  141.0469  166.4861 C.ar    1  UNL1       -0.0043
     12 C         139.2600  139.8767  167.1717 C.ar    1  UNL1       -0.0178
     13 C         139.1496  139.8522  168.6674 C.ar    1  UNL1       -0.0043
     14 C         139.6798  140.9979  169.4775 C.ar    1  UNL1       -0.0046
     15 C         138.6019  139.5533  161.2325 C.3     1  UNL1        0.2508
     16 O         138.8824  141.0026  160.9666 O.3     1  UNL1       -0.4690
     17 C         138.8605  141.9902  162.0955 C.ar    1  UNL1        0.1391
     18 C         140.1422  142.5929  162.5897 C.ar    1  UNL1        0.0366
     19 C         140.1203  143.5804  163.7185 C.ar    1  UNL1       -0.0011
     20 C         138.8167  143.9652  164.3532 C.ar    1  UNL1       -0.0217
     21 C         138.7948  144.9528  165.4820 C.3     1  UNL1        0.0310
     22 C         137.5351  143.3625  163.8590 C.ar    1  UNL1       -0.0011
     23 C         137.5570  142.3750  162.7301 C.ar    1  UNL1        0.0366
@<TRIPOS>BOND
     1     8     9    1
     2     9    10   ar
     3    10    11   ar
     4    11    12   ar
     5    12     7    1
     6     7     1    1
     7     1     2   ar
     8     2     3   ar
     9     3     4   ar
    10     4     5   ar
    11     5    15    1
    12    15    16    1
    13    16    17    1
    14    17    18   ar
    15    18    19   ar
    16    19    20   ar
    17    20    21    1
    18    20    22   ar
    19    22    23   ar
    20     5     6   ar
    21    12    13   ar
    22    13    14   ar
    23    14     9   ar
    24     6     1   ar
    25    23    17   ar
@<TRIPOS>MOLECULE
*****
 23 25 0 0 0
SMALL
GASTEIGER

@<TRIPOS>ATOM
      1 C         142.7612  138.5102  163.5756 C.ar    1  UNL1       -0.0150
      2 C         143.1936  138.1625  162.1819 C.ar    1  UNL1        0.0167
      3 C         142.1718  137.7764  161.1539 C.ar    1  UNL1        0.0983
      4 N         140.7175  137.7380  161.5195 N.ar    1  UNL1       -0.2445
      5 C         140.2851  138.0856  162.9131 C.ar    1  UNL1        0.1023
      6 C         141.3069  138.4717  163.9412 C.ar    1  UNL1        0.0145
      7 C         143.7830  138.8962  164.6036 C.3     1  UNL1        0.0527
      8 C         142.2696  142.5558  169.1110 C.3     1  UNL1        0.0310
      9 C         142.6479  141.6409  167.9842 C.ar    1  UNL1       -0.0219
     10 C         143.1089  142.2127  166.6764 C.ar    1  UNL1       -0.0046
     11 C         143.4873  141.2978  165.5495 C.ar    1  UNL1       -0.0043
     12 C         143.4046  139.8111  165.7304 C.ar    1  UNL1       -0.0178
     13 C         142.9436  139.2393  167.0382 C.ar    1  UNL1       -0.0043
     14 C         142.5653  140.1542  168.1651 C.ar    1  UNL1       -0.0046
     15 C         138.8308  138.0472  163.2787 C.3     1  UNL1        0.2508
     16 O         138.3498  138.7456  164.5159 O.3     1  UNL1       -0.4690
     17 C         138.4819  140.2349  164.6359 C.ar    1  UNL1        0.1391
     18 C         137.6621  141.1337  163.7582 C.ar    1  UNL1        0.0366
     19 C         137.7943  142.6230  163.8781 C.ar    1  UNL1       -0.0011
     20 C         138.7462  143.2136  164.8757 C.ar    1  UNL1       -0.0217
     21 C         138.8783  144.7030  164.9956 C.3     1  UNL1        0.0310
     22 C         139.5659  142.3149  165.7533 C.ar    1  UNL1       -0.0011
     23 C         139.4338  140.8255  165.6334 C.ar    1  UNL1        0.0366
@<TRIPOS>BOND
     1     8     9    1
     2     9    10   ar
     3    10    11   ar
     4    11    12   ar
     5    12     7    1
     6     7     1    1
     7     1     2   ar
     8     2     3   ar
     9     3     4   ar
    10     4     5   ar
    11     5    15    1
    12    15    16    1
    13    16    17    1
    14    17    18   ar
    15    18    19   ar
    16    19    20   ar
    17    20    21    1
    18    20    22   ar
    19    22    23   ar
    20     5     6   ar
    21    12    13   ar
    22    13    14   ar
    23    14     9   ar
    24     6     1   ar
    25    23    17   ar
@<TRIPOS>MOLECULE
*****
 23 25 0 0 0
SMALL
GASTEIGER

@<TRIPOS>ATOM
      1 C         143.6042  139.0179  164.9339 C.ar    1  UNL1       -0.0150
      2 C         144.6332  139.9619  164.3863 C.ar    1  UNL1        0.0167
      3 C         144.6442  140.2930  162.9233 C.ar    1  UNL1        0.0983
      4 N         143.6261  139.6801  162.0080 N.ar    1  UNL1       -0.2445
      5 C         142.5971  138.7361  162.5556 C.ar    1  UNL1        0.1023
      6 C         142.5861  138.4049  164.0186 C.ar    1  UNL1        0.0145
      7 C         143.5933  138.6868  166.3969 C.3     1  UNL1        0.0527
      8 C         139.6306  141.3340  170.0424 C.3     1  UNL1        0.0310
      9 C         140.6213  140.6722  169.1310 C.ar    1  UNL1       -0.0219
     10 C         140.6124  140.9804  167.6631 C.ar    1  UNL1       -0.0046
     11 C         141.6030  140.3186  166.7517 C.ar    1  UNL1       -0.0043
     12 C         142.6026  139.3486  167.3082 C.ar    1  UNL1       -0.0178
     13 C         142.6115  139.0403  168.7762 C.ar    1  UNL1       -0.0043
     14 C         141.6209  139.7021  169.6876 C.ar    1  UNL1       -0.0046
     15 C         141.5790  138.1231  161.6403 C.3     1  UNL1        0.2508
     16 O         140.1298  138.4831  161.7821 O.3     1  UNL1       -0.4690
     17 C         139.5054  138.5579  163.1439 C.ar    1  UNL1        0.1391
     18 C         138.9661  139.8625  163.6510 C.ar    1  UNL1        0.0366
     19 C         138.3417  139.9374  165.0128 C.ar    1  UNL1       -0.0011
     20 C         138.2565  138.7075  165.8675 C.ar    1  UNL1       -0.0217
     21 C         137.6320  138.7823  167.2292 C.3     1  UNL1        0.0310
     22 C         138.7957  137.4030  165.3603 C.ar    1  UNL1       -0.0011
     23 C         139.4202  137.3281  163.9985 C.ar    1  UNL1        0.0366
@<TRIPOS>BOND
     1     8     9    1
     2     9    10   ar
     3    10    11   ar
     4    11    12   ar
     5    12     7    1
     6     7     1    1
     7     1     2   ar
     8     2     3   ar
     9     3     4   ar
    10     4     5   ar
    11     5    15    1
    12    15    16    1
    13    16    17    1
    14    17    18   ar
    15    18    19   ar
    16    19    20   ar
    17    20    21    1
    18    20    22   ar
    19    22    23   ar
    20     5     6   ar
    21    12    13   ar
    22    13    14   ar
    23    14     9   ar
    24     6     1   ar
    25    23    17   ar
@<TRIPOS>MOLECULE
*****
 23 25 0 0 0
SMALL
GASTEIGER

@<TRIPOS>ATOM
      1 C         138.6529  139.1797  165.7315 C.ar    1  UNL1       -0.0150
      2 C         138.9453  137.8937  165.0169 C.ar    1  UNL1        0.0167
      3 C         138.7550  137.8008  163.5319 C.ar    1  UNL1        0.0983
      4 N         138.2722  138.9939  162.7616 N.ar    1  UNL1       -0.2445
      5 C         137.9798  140.2799  163.4762 C.ar    1  UNL1        0.1023
      6 C         138.1701  140.3728  164.9612 C.ar    1  UNL1        0.0145
      7 C         138.8433  139.2726  167.2165 C.3     1  UNL1        0.0527
      8 C         143.5032  142.3149  169.4592 C.3     1  UNL1        0.0310
      9 C         142.3382  141.5543  168.8986 C.ar    1  UNL1       -0.0219
     10 C         142.5520  140.5615  167.7946 C.ar    1  UNL1       -0.0046
     11 C         141.3870  139.8010  167.2340 C.ar    1  UNL1       -0.0043
     12 C         140.0083  140.0332  167.7772 C.ar    1  UNL1       -0.0178
     13 C         139.7945  141.0259  168.8811 C.ar    1  UNL1       -0.0043
     14 C         140.9595  141.7865  169.4418 C.ar    1  UNL1       -0.0046
     15 C         137.4970  141.4730  162.7059 C.3     1  UNL1        0.2508
     16 O         138.2678  142.7589  162.7540 O.3     1  UNL1       -0.4690
     17 C         139.6153  142.8015  163.4115 C.ar    1  UNL1        0.1391
     18 C         140.8402  142.4136  162.6373 C.ar    1  UNL1        0.0366
     19 C         142.1877  142.4562  163.2949 C.ar    1  UNL1       -0.0011
     20 C         142.3104  142.8865  164.7266 C.ar    1  UNL1       -0.0217
     21 C         143.6579  142.9291  165.3841 C.3     1  UNL1        0.0310
     22 C         141.0855  143.2743  165.5007 C.ar    1  UNL1       -0.0011
     23 C         139.7380  143.2318  164.8432 C.ar    1  UNL1        0.0366
@<TRIPOS>BOND
     1     8     9    1
     2     9    10   ar
     3    10    11   ar
     4    11    12   ar
     5    12     7    1
     6     7     1    1
     7     1     2   ar
     8     2     3   ar
     9     3     4   ar
    10     4     5   ar
    11     5    15    1
    12    15    16    1
    13    16    17    1
    14    17    18   ar
    15    18    19   ar
    16    19    20   ar
    17    20    21    1
    18    20    22   ar
    19    22    23   ar
    20     5     6   ar
    21    12    13   ar
    22    13    14   ar
    23    14     9   ar
    24     6     1   ar
    25    23    17   ar
@<TRIPOS>MOLECULE
*****
 23 25 0 0 0
SMALL
GASTEIGER

@<TRIPOS>ATOM
      1 C         143.7787  139.4629  164.3946 C.ar    1  UNL1       -0.0150
      2 C         143.8153  138.7470  163.0770 C.ar    1  UNL1        0.0167
      3 C         144.0674  139.5145  161.8131 C.ar    1  UNL1        0.0983
      4 N         144.2828  140.9980  161.8669 N.ar    1  UNL1       -0.2445
      5 C         144.2462  141.7139  163.1845 C.ar    1  UNL1        0.1023
      6 C         143.9941  140.9463  164.4484 C.ar    1  UNL1        0.0145
      7 C         143.5266  138.6953  165.6584 C.3     1  UNL1        0.0527
      8 C         139.2736  140.5183  169.4780 C.3     1  UNL1        0.0310
      9 C         140.3368  140.0625  168.5231 C.ar    1  UNL1       -0.0219
     10 C         140.0112  139.8777  167.0706 C.ar    1  UNL1       -0.0046
     11 C         141.0745  139.4220  166.1157 C.ar    1  UNL1       -0.0043
     12 C         142.4633  139.1511  166.6133 C.ar    1  UNL1       -0.0178
     13 C         142.7889  139.3359  168.0658 C.ar    1  UNL1       -0.0043
     14 C         141.7257  139.7916  169.0207 C.ar    1  UNL1       -0.0046
     15 C         144.4617  143.1974  163.2382 C.3     1  UNL1        0.2508
     16 O         143.7948  144.0139  164.3053 O.3     1  UNL1       -0.4690
     17 C         142.2980  144.0521  164.3949 C.ar    1  UNL1        0.1391
     18 C         141.5829  143.1733  165.3780 C.ar    1  UNL1        0.0366
     19 C         140.0861  143.2115  165.4677 C.ar    1  UNL1       -0.0011
     20 C         139.3043  144.1285  164.5743 C.ar    1  UNL1       -0.0217
     21 C         137.8075  144.1667  164.6640 C.3     1  UNL1        0.0310
     22 C         140.0195  145.0072  163.5912 C.ar    1  UNL1       -0.0011
     23 C         141.5163  144.9690  163.5016 C.ar    1  UNL1        0.0366
@<TRIPOS>BOND
     1     8     9    1
     2     9    10   ar
     3    10    11   ar
     4    11    12   ar
     5    12     7    1
     6     7     1    1
     7     1     2   ar
     8     2     3   ar
     9     3     4   ar
    10     4     5   ar
    11     5    15    1
    12    15    16    1
    13    16    17    1
    14    17    18   ar
    15    18    19   ar
    16    19    20   ar
    17    20    21    1
    18    20    22   ar
    19    22    23   ar
    20     5     6   ar
    21    12    13   ar
    22    13    14   ar
    23    14     9   ar
    24     6     1   ar
    25    23    17   ar
@<TRIPOS>MOLECULE
*****
 23 25 0 0 0
SMALL
GASTEIGER

@<TRIPOS>ATOM
      1 C         138.8639  140.5255  165.0753 C.ar    1  UNL1       -0.0150
      2 C         138.2063  139.7118  166.1503 C.ar    1  UNL1        0.0167
      3 C         138.2289  138.2138  166.0768 C.ar    1  UNL1        0.0983
      4 N         138.9090  137.5294  164.9283 N.ar    1  UNL1       -0.2445
      5 C         139.5665  138.3430  163.8533 C.ar    1  UNL1        0.1023
      6 C         139.5440  139.8411  163.9268 C.ar    1  UNL1        0.0145
      7 C         138.8414  142.0235  165.1488 C.3     1  UNL1        0.0527
      8 C         143.7345  145.1729  163.6867 C.3     1  UNL1        0.0310
      9 C         142.5112  144.3856  164.0522 C.ar    1  UNL1       -0.0219
     10 C         142.6317  143.1803  164.9370 C.ar    1  UNL1       -0.0046
     11 C         141.4084  142.3929  165.3025 C.ar    1  UNL1       -0.0043
     12 C         140.0647  142.8108  164.7833 C.ar    1  UNL1       -0.0178
     13 C         139.9442  144.0161  163.8986 C.ar    1  UNL1       -0.0043
     14 C         141.1675  144.8034  163.5330 C.ar    1  UNL1       -0.0046
     15 C         140.2467  137.6586  162.7048 C.3     1  UNL1        0.2508
     16 O         141.6998  137.2990  162.8001 O.3     1  UNL1       -0.4690
     17 C         142.7230  138.3690  163.0406 C.ar    1  UNL1        0.1391
     18 C         143.1576  138.6903  164.4399 C.ar    1  UNL1        0.0366
     19 C         144.1809  139.7603  164.6804 C.ar    1  UNL1       -0.0011
     20 C         144.7696  140.5091  163.5216 C.ar    1  UNL1       -0.0217
     21 C         145.7929  141.5792  163.7622 C.3     1  UNL1        0.0310
     22 C         144.3351  140.1879  162.1224 C.ar    1  UNL1       -0.0011
     23 C         143.3118  139.1178  161.8819 C.ar    1  UNL1        0.0366
@<TRIPOS>BOND
     1     8     9    1
     2     9    10   ar
     3    10    11   ar
     4    11    12   ar
     5    12     7    1
     6     7     1    1
     7     1     2   ar
     8     2     3   ar
     9     3     4   ar
    10     4     5   ar
    11     5    15    1
    12    15    16    1
    13    16    17    1
    14    17    18   ar
    15    18    19   ar
    16    19    20   ar
    17    20    21    1
    18    20    22   ar
    19    22    23   ar
    20     5     6   ar
    21    12    13   ar
    22    13    14   ar
    23    14     9   ar
    24     6     1   ar
    25    23    17   ar
@<TRIPOS>MOLECULE
*****
 23 25 0 0 0
SMALL
GASTEIGER

@<TRIPOS>ATOM
      1 C         141.0457  144.2595  163.6898 C.ar    1  UNL1       -0.0150
      2 C         140.9525  145.4156  162.7385 C.ar    1  UNL1        0.0167
      3 C         139.6509  145.7260  162.0607 C.ar    1  UNL1        0.0983
      4 N         138.4425  144.8803  162.3341 N.ar    1  UNL1       -0.2445
      5 C         138.5357  143.7243  163.2852 C.ar    1  UNL1        0.1023
      6 C         139.8374  143.4138  163.9631 C.ar    1  UNL1        0.0145
      7 C         142.3473  143.9491  164.3676 C.3     1  UNL1        0.0527
      8 C         143.3638  138.4473  166.5351 C.3     1  UNL1        0.0310
      9 C         143.1097  139.8228  165.9932 C.ar    1  UNL1       -0.0219
     10 C         142.7063  140.9312  166.9198 C.ar    1  UNL1       -0.0046
     11 C         142.4521  142.3066  166.3779 C.ar    1  UNL1       -0.0043
     12 C         142.6014  142.5736  164.9095 C.ar    1  UNL1       -0.0178
     13 C         143.0049  141.4652  163.9829 C.ar    1  UNL1       -0.0043
     14 C         143.2590  140.0898  164.5248 C.ar    1  UNL1       -0.0046
     15 C         137.3274  142.8786  163.5586 C.3     1  UNL1        0.2508
     16 O         137.1862  141.5376  162.9016 O.3     1  UNL1       -0.4690
     17 C         138.1119  140.4181  163.2754 C.ar    1  UNL1        0.1391
     18 C         138.7135  139.5539  162.2071 C.ar    1  UNL1        0.0366
     19 C         139.6392  138.4344  162.5810 C.ar    1  UNL1       -0.0011
     20 C         139.9632  138.1790  164.0232 C.ar    1  UNL1       -0.0217
     21 C         140.8888  137.0594  164.3971 C.3     1  UNL1        0.0310
     22 C         139.3615  139.0432  165.0914 C.ar    1  UNL1       -0.0011
     23 C         138.4359  140.1627  164.7175 C.ar    1  UNL1        0.0366
@<TRIPOS>BOND
     1     8     9    1
     2     9    10   ar
     3    10    11   ar
     4    11    12   ar
     5    12     7    1
     6     7     1    1
     7     1     2   ar
     8     2     3   ar
     9     3     4   ar
    10     4     5   ar
    11     5    15    1
    12    15    16    1
    13    16    17    1
    14    17    18   ar
    15    18    19   ar
    16    19    20   ar
    17    20    21    1
    18    20    22   ar
    19    22    23   ar
    20     5     6   ar
    21    12    13   ar
    22    13    14   ar
    23    14     9   ar
    24     6     1   ar
    25    23    17   ar
