@<TRIPOS>MOLECULE
*****
 24 26 0 0 0
SMALL
GASTEIGER

@<TRIPOS>ATOM
      1 C         139.7466  143.9296  163.6277 C.ar    1  UNL1        0.1073
      2 C         140.7878  143.9295  164.7074 C.ar    1  UNL1        0.0199
      3 C         140.8673  142.7841  165.6726 C.ar    1  UNL1        0.0201
      4 C         139.9056  141.6387  165.5581 C.ar    1  UNL1        0.0791
      5 C         138.8644  141.6388  164.4784 C.ar    1  UNL1        0.0999
      6 C         138.7849  142.7842  163.5132 C.ar    1  UNL1        0.0389
      7 N         138.0581  140.3809  164.6118 N.ar    1  UNL1       -0.2232
      8 C         138.6011  139.6034  165.7740 C.ar    1  UNL1        0.2167
      9 N         139.7429  140.3808  166.3589 N.ar    1  UNL1       -0.3040
     10 C         139.5876  146.2205  161.6972 C.3     1  UNL1        0.1816
     11 S         139.6671  145.0750  162.6625 S.O2    1  UNL1        0.0105
     12 O         138.2123  144.7860  162.4392 O.2     1  UNL1       -0.1686
     13 O         141.1220  145.3641  162.8857 O.2     1  UNL1       -0.1686
     14 C         138.0917  138.2808  166.2652 C.3     1  UNL1        0.4506
     15 F         137.5824  136.9582  166.7564 F       1  UNL1       -0.1632
     16 F         138.8212  137.5870  165.1533 F       1  UNL1       -0.1632
     17 F         137.3622  138.9747  167.3772 F       1  UNL1       -0.1632
     18 C         140.5757  139.9721  167.5375 C.3     1  UNL1        0.1341
     19 C         141.1914  141.0175  168.4196 C.ar    1  UNL1        0.0004
     20 C         142.6837  141.1396  168.5087 C.ar    1  UNL1       -0.0024
     21 C         143.2993  142.1852  169.3909 C.ar    1  UNL1       -0.0003
     22 C         142.4225  143.1085  170.1838 C.ar    1  UNL1       -0.0000
     23 C         140.9302  142.9864  170.0946 C.ar    1  UNL1       -0.0003
     24 C         140.3146  141.9409  169.2125 C.ar    1  UNL1       -0.0024
@<TRIPOS>BOND
     1    10    11    1
     2    11    12    2
     3    11    13    2
     4    11     1    1
     5     1     2   ar
     6     2     3   ar
     7     3     4   ar
     8     4     5   ar
     9     5     6   ar
    10     5     7   ar
    11     7     8   ar
    12     8    14    1
    13    14    15    1
    14    14    16    1
    15    14    17    1
    16     8     9   ar
    17     9    18    1
    18    18    19    1
    19    19    20   ar
    20    20    21   ar
    21    21    22   ar
    22    22    23   ar
    23    23    24   ar
    24     6     1   ar
    25    24    19   ar
    26     9     4   ar
@<TRIPOS>MOLECULE
*****
 24 26 0 0 0
SMALL
GASTEIGER

@<TRIPOS>ATOM
      1 C         140.7628  143.4342  162.0240 C.ar    1  UNL1        0.1073
      2 C         141.6994  143.6043  163.1833 C.ar    1  UNL1        0.0199
      3 C         141.6435  142.6498  164.3390 C.ar    1  UNL1        0.0201
      4 C         140.6510  141.5251  164.3355 C.ar    1  UNL1        0.0791
      5 C         139.7144  141.3550  163.1763 C.ar    1  UNL1        0.0999
      6 C         139.7703  142.3095  162.0205 C.ar    1  UNL1        0.0389
      7 N         138.8492  140.1607  163.4507 N.ar    1  UNL1       -0.2232
      8 C         139.2512  139.5928  164.7796 C.ar    1  UNL1        0.2167
      9 N         140.3647  140.4360  165.3264 N.ar    1  UNL1       -0.3040
     10 C         140.8747  145.3432  159.7125 C.3     1  UNL1        0.1816
     11 S         140.8188  144.3887  160.8683 S.O2    1  UNL1        0.0105
     12 O         139.3362  144.2534  160.6848 O.2     1  UNL1       -0.1686
     13 O         142.3013  144.5240  161.0518 O.2     1  UNL1       -0.1686
     14 C         138.6458  138.3923  165.4449 C.3     1  UNL1        0.4506
     15 F         138.0405  137.1919  166.1101 F       1  UNL1       -0.1632
     16 F         137.6654  139.2793  166.1533 F       1  UNL1       -0.1632
     17 F         139.6263  137.5052  164.7364 F       1  UNL1       -0.1632
     18 C         141.0684  140.2269  166.6345 C.3     1  UNL1        0.1341
     19 C         140.6180  140.9719  167.8560 C.ar    1  UNL1        0.0004
     20 C         139.7665  140.2849  168.8821 C.ar    1  UNL1       -0.0024
     21 C         139.3161  141.0300  170.1037 C.ar    1  UNL1       -0.0003
     22 C         139.7173  142.4621  170.2990 C.ar    1  UNL1       -0.0000
     23 C         140.5687  143.1491  169.2728 C.ar    1  UNL1       -0.0003
     24 C         141.0191  142.4041  168.0514 C.ar    1  UNL1       -0.0024
@<TRIPOS>BOND
     1    10    11    1
     2    11    12    2
     3    11    13    2
     4    11     1    1
     5     1     2   ar
     6     2     3   ar
     7     3     4   ar
     8     4     5   ar
     9     5     6   ar
    10     5     7   ar
    11     7     8   ar
    12     8    14    1
    13    14    15    1
    14    14    16    1
    15    14    17    1
    16     8     9   ar
    17     9    18    1
    18    18    19    1
    19    19    20   ar
    20    20    21   ar
    21    21    22   ar
    22    22    23   ar
    23    23    24   ar
    24     6     1   ar
    25    24    19   ar
    26     9     4   ar
@<TRIPOS>MOLECULE
*****
 24 26 0 0 0
SMALL
GASTEIGER

@<TRIPOS>ATOM
      1 C         139.7228  144.0002  163.3232 C.ar    1  UNL1        0.1073
      2 C         139.1728  144.0263  164.7184 C.ar    1  UNL1        0.0199
      3 C         139.1930  142.7820  165.5560 C.ar    1  UNL1        0.0201
      4 C         139.7631  141.5117  164.9982 C.ar    1  UNL1        0.0791
      5 C         140.3131  141.4856  163.6030 C.ar    1  UNL1        0.0999
      6 C         140.2930  142.7298  162.7655 C.ar    1  UNL1        0.0389
      7 N         140.8073  140.0967  163.3254 N.ar    1  UNL1       -0.2232
      8 C         140.5626  139.2645  164.5492 C.ar    1  UNL1        0.2167
      9 N         139.9173  140.1390  165.5830 N.ar    1  UNL1       -0.3040
     10 C         139.6825  146.4886  161.6481 C.3     1  UNL1        0.1816
     11 S         139.7027  145.2444  162.4857 S.O2    1  UNL1        0.0105
     12 O         138.2275  145.0767  162.2719 O.2     1  UNL1       -0.1686
     13 O         141.1779  145.4121  162.6994 O.2     1  UNL1       -0.1686
     14 C         140.9035  137.8126  164.7107 C.3     1  UNL1        0.4506
     15 F         141.2443  136.3609  164.8723 F       1  UNL1       -0.1632
     16 F         142.3231  138.1810  165.0251 F       1  UNL1       -0.1632
     17 F         139.4837  137.4444  164.3963 F       1  UNL1       -0.1632
     18 C         139.4995  139.7152  166.9599 C.3     1  UNL1        0.1341
     19 C         140.3324  140.0975  168.1474 C.ar    1  UNL1        0.0004
     20 C         141.8113  139.8470  168.1382 C.ar    1  UNL1       -0.0024
     21 C         142.6442  140.2293  169.3258 C.ar    1  UNL1       -0.0003
     22 C         141.9981  140.8621  170.5225 C.ar    1  UNL1       -0.0000
     23 C         140.5192  141.1126  170.5317 C.ar    1  UNL1       -0.0003
     24 C         139.6864  140.7303  169.3442 C.ar    1  UNL1       -0.0024
@<TRIPOS>BOND
     1    10    11    1
     2    11    12    2
     3    11    13    2
     4    11     1    1
     5     1     2   ar
     6     2     3   ar
     7     3     4   ar
     8     4     5   ar
     9     5     6   ar
    10     5     7   ar
    11     7     8   ar
    12     8    14    1
    13    14    15    1
    14    14    16    1
    15    14    17    1
    16     8     9   ar
    17     9    18    1
    18    18    19    1
    19    19    20   ar
    20    20    21   ar
    21    21    22   ar
    22    22    23   ar
    23    23    24   ar
    24     6     1   ar
    25    24    19   ar
    26     9     4   ar
@<TRIPOS>MOLECULE
*****
 24 26 0 0 0
SMALL
GASTEIGER

@<TRIPOS>ATOM
      1 C         140.8148  143.4775  161.7012 C.ar    1  UNL1        0.1073
      2 C         139.5690  143.3959  162.5326 C.ar    1  UNL1        0.0199
      3 C         139.5085  142.4602  163.7034 C.ar    1  UNL1        0.0201
      4 C         140.6939  141.6060  164.0428 C.ar    1  UNL1        0.0791
      5 C         141.9397  141.6876  163.2114 C.ar    1  UNL1        0.0999
      6 C         142.0001  142.6233  162.0406 C.ar    1  UNL1        0.0389
      7 N         142.9425  140.7299  163.7837 N.ar    1  UNL1       -0.2232
      8 C         142.3163  140.0565  164.9688 C.ar    1  UNL1        0.2167
      9 N         140.9266  140.5980  165.1289 N.ar    1  UNL1       -0.3040
     10 C         140.9356  145.3489  159.3595 C.3     1  UNL1        0.1816
     11 S         140.8752  144.4132  160.5304 S.O2    1  UNL1        0.0105
     12 O         142.3458  144.6023  160.7574 O.2     1  UNL1       -0.1686
     13 O         139.4046  144.2241  160.3033 O.2     1  UNL1       -0.1686
     14 C         142.9658  139.0231  165.8408 C.3     1  UNL1        0.4506
     15 F         143.6153  137.9897  166.7126 F       1  UNL1       -0.1632
     16 F         142.7631  137.9924  164.7701 F       1  UNL1       -0.1632
     17 F         143.1685  140.0539  166.9115 F       1  UNL1       -0.1632
     18 C         139.9425  140.2011  166.1890 C.3     1  UNL1        0.1341
     19 C         139.9411  140.9062  167.5129 C.ar    1  UNL1        0.0004
     20 C         140.5222  142.2842  167.6295 C.ar    1  UNL1       -0.0024
     21 C         140.5207  142.9893  168.9535 C.ar    1  UNL1       -0.0003
     22 C         139.9382  142.3164  170.1609 C.ar    1  UNL1       -0.0000
     23 C         139.3571  140.9385  170.0444 C.ar    1  UNL1       -0.0003
     24 C         139.3585  140.2334  168.7204 C.ar    1  UNL1       -0.0024
@<TRIPOS>BOND
     1    10    11    1
     2    11    12    2
     3    11    13    2
     4    11     1    1
     5     1     2   ar
     6     2     3   ar
     7     3     4   ar
     8     4     5   ar
     9     5     6   ar
    10     5     7   ar
    11     7     8   ar
    12     8    14    1
    13    14    15    1
    14    14    16    1
    15    14    17    1
    16     8     9   ar
    17     9    18    1
    18    18    19    1
    19    19    20   ar
    20    20    21   ar
    21    21    22   ar
    22    22    23   ar
    23    23    24   ar
    24     6     1   ar
    25    24    19   ar
    26     9     4   ar
@<TRIPOS>MOLECULE
*****
 24 26 0 0 0
SMALL
GASTEIGER

@<TRIPOS>ATOM
      1 C         141.6456  138.4909  160.6367 C.ar    1  UNL1        0.1073
      2 C         142.7643  138.8279  161.5773 C.ar    1  UNL1        0.0199
      3 C         142.4981  138.9414  163.0492 C.ar    1  UNL1        0.0201
      4 C         141.1132  138.7180  163.5803 C.ar    1  UNL1        0.0791
      5 C         139.9945  138.3811  162.6396 C.ar    1  UNL1        0.0999
      6 C         140.2607  138.2675  161.1678 C.ar    1  UNL1        0.0389
      7 N         138.7421  138.2166  163.4487 N.ar    1  UNL1       -0.2232
      8 C         139.0869  138.4519  164.8894 C.ar    1  UNL1        0.2167
      9 N         140.5523  138.7618  164.9708 N.ar    1  UNL1       -0.3040
     10 C         142.1779  138.2638  157.6930 C.3     1  UNL1        0.1816
     11 S         141.9118  138.3774  159.1648 S.O2    1  UNL1        0.0105
     12 O         143.3869  138.3411  159.4344 O.2     1  UNL1       -0.1686
     13 O         140.4366  138.4137  158.8952 O.2     1  UNL1       -0.1686
     14 C         138.1336  138.3885  166.0459 C.3     1  UNL1        0.4506
     15 F         137.1804  138.3252  167.2023 F       1  UNL1       -0.1632
     16 F         137.9615  139.8774  165.9857 F       1  UNL1       -0.1632
     17 F         138.3057  136.8996  166.1061 F       1  UNL1       -0.1632
     18 C         141.3217  139.0627  166.2227 C.3     1  UNL1        0.1341
     19 C         140.9611  140.2566  167.0561 C.ar    1  UNL1        0.0004
     20 C         140.6021  140.0813  168.5019 C.ar    1  UNL1       -0.0024
     21 C         140.2414  141.2753  169.3353 C.ar    1  UNL1       -0.0003
     22 C         140.2398  142.6445  168.7228 C.ar    1  UNL1       -0.0000
     23 C         140.5987  142.8198  167.2769 C.ar    1  UNL1       -0.0003
     24 C         140.9594  141.6259  166.4436 C.ar    1  UNL1       -0.0024
@<TRIPOS>BOND
     1    10    11    1
     2    11    12    2
     3    11    13    2
     4    11     1    1
     5     1     2   ar
     6     2     3   ar
     7     3     4   ar
     8     4     5   ar
     9     5     6   ar
    10     5     7   ar
    11     7     8   ar
    12     8    14    1
    13    14    15    1
    14    14    16    1
    15    14    17    1
    16     8     9   ar
    17     9    18    1
    18    18    19    1
    19    19    20   ar
    20    20    21   ar
    21    21    22   ar
    22    22    23   ar
    23    23    24   ar
    24     6     1   ar
    25    24    19   ar
    26     9     4   ar
@<TRIPOS>MOLECULE
*****
 24 26 0 0 0
SMALL
GASTEIGER

@<TRIPOS>ATOM
      1 C         140.4658  140.8708  168.3096 C.ar    1  UNL1        0.1073
      2 C         141.2098  141.8399  167.4395 C.ar    1  UNL1        0.0199
      3 C         141.0449  141.7896  165.9495 C.ar    1  UNL1        0.0201
      4 C         140.1360  140.7700  165.3295 C.ar    1  UNL1        0.0791
      5 C         139.3920  139.8009  166.1997 C.ar    1  UNL1        0.0999
      6 C         139.5569  139.8513  167.6897 C.ar    1  UNL1        0.0389
      7 N         138.5724  138.9138  165.3100 N.ar    1  UNL1       -0.2232
      8 C         138.8099  139.3348  163.8900 C.ar    1  UNL1        0.2167
      9 N         139.7762  140.4820  163.9021 N.ar    1  UNL1       -0.3040
     10 C         140.7957  140.9716  171.2898 C.3     1  UNL1        0.1816
     11 S         140.6307  140.9212  169.7997 S.O2    1  UNL1        0.0105
     12 O         141.5927  142.0629  169.6546 O.2     1  UNL1       -0.1686
     13 O         139.6688  139.7794  169.9448 O.2     1  UNL1       -0.1686
     14 C         138.1899  138.7171  162.6717 C.3     1  UNL1        0.4506
     15 F         137.5699  138.0993  161.4536 F       1  UNL1       -0.1632
     16 F         138.9996  137.4735  162.8903 F       1  UNL1       -0.1632
     17 F         137.3801  139.9607  162.4533 F       1  UNL1       -0.1632
     18 C         140.2923  141.2129  162.6981 C.3     1  UNL1        0.1341
     19 C         140.0786  142.6920  162.5700 C.ar    1  UNL1        0.0004
     20 C         141.1935  143.5718  162.0873 C.ar    1  UNL1       -0.0024
     21 C         140.9797  145.0511  161.9592 C.ar    1  UNL1       -0.0003
     22 C         139.6512  145.6504  162.3138 C.ar    1  UNL1       -0.0000
     23 C         138.5363  144.7705  162.7965 C.ar    1  UNL1       -0.0003
     24 C         138.7500  143.2914  162.9246 C.ar    1  UNL1       -0.0024
@<TRIPOS>BOND
     1    10    11    1
     2    11    12    2
     3    11    13    2
     4    11     1    1
     5     1     2   ar
     6     2     3   ar
     7     3     4   ar
     8     4     5   ar
     9     5     6   ar
    10     5     7   ar
    11     7     8   ar
    12     8    14    1
    13    14    15    1
    14    14    16    1
    15    14    17    1
    16     8     9   ar
    17     9    18    1
    18    18    19    1
    19    19    20   ar
    20    20    21   ar
    21    21    22   ar
    22    22    23   ar
    23    23    24   ar
    24     6     1   ar
    25    24    19   ar
    26     9     4   ar
@<TRIPOS>MOLECULE
*****
 24 26 0 0 0
SMALL
GASTEIGER

@<TRIPOS>ATOM
      1 C         142.7302  142.4399  161.5858 C.ar    1  UNL1        0.1073
      2 C         142.6721  143.6270  162.5009 C.ar    1  UNL1        0.0199
      3 C         141.9110  143.5432  163.7907 C.ar    1  UNL1        0.0201
      4 C         141.2080  142.2723  164.1655 C.ar    1  UNL1        0.0791
      5 C         141.2660  141.0852  163.2505 C.ar    1  UNL1        0.0999
      6 C         142.0271  141.1690  161.9606 C.ar    1  UNL1        0.0389
      7 N         140.4800  139.9744  163.8818 N.ar    1  UNL1       -0.2232
      8 C         139.9362  140.4751  165.1870 C.ar    1  UNL1        0.2167
      9 N         140.3861  141.8953  165.3623 N.ar    1  UNL1       -0.3040
     10 C         144.2523  142.6074  159.0061 C.3     1  UNL1        0.1816
     11 S         143.4912  142.5236  160.2960 S.O2    1  UNL1        0.0105
     12 O         144.0859  141.1719  160.5591 O.2     1  UNL1       -0.1686
     13 O         142.8966  143.8753  160.0329 O.2     1  UNL1       -0.1686
     14 C         139.0908  139.6930  166.1481 C.3     1  UNL1        0.4506
     15 F         138.2455  138.9109  167.1092 F       1  UNL1       -0.1632
     16 F         140.2950  139.4490  167.0085 F       1  UNL1       -0.1632
     17 F         137.8866  139.9371  165.2876 F       1  UNL1       -0.1632
     18 C         140.0697  142.7827  166.5296 C.3     1  UNL1        0.1341
     19 C         140.9574  142.7766  167.7387 C.ar    1  UNL1        0.0004
     20 C         140.4387  143.2814  169.0525 C.ar    1  UNL1       -0.0024
     21 C         141.3265  143.2753  170.2616 C.ar    1  UNL1       -0.0003
     22 C         142.7330  142.7644  170.1569 C.ar    1  UNL1       -0.0000
     23 C         143.2516  142.2596  168.8430 C.ar    1  UNL1       -0.0003
     24 C         142.3639  142.2657  167.6340 C.ar    1  UNL1       -0.0024
@<TRIPOS>BOND
     1    10    11    1
     2    11    12    2
     3    11    13    2
     4    11     1    1
     5     1     2   ar
     6     2     3   ar
     7     3     4   ar
     8     4     5   ar
     9     5     6   ar
    10     5     7   ar
    11     7     8   ar
    12     8    14    1
    13    14    15    1
    14    14    16    1
    15    14    17    1
    16     8     9   ar
    17     9    18    1
    18    18    19    1
    19    19    20   ar
    20    20    21   ar
    21    21    22   ar
    22    22    23   ar
    23    23    24   ar
    24     6     1   ar
    25    24    19   ar
    26     9     4   ar
@<TRIPOS>MOLECULE
*****
 24 26 0 0 0
SMALL
GASTEIGER

@<TRIPOS>ATOM
      1 C         141.0525  143.6998  160.8606 C.ar    1  UNL1        0.1073
      2 C         140.1681  143.6407  162.0706 C.ar    1  UNL1        0.0199
      3 C         140.5662  142.8045  163.2505 C.ar    1  UNL1        0.0201
      4 C         141.8487  142.0272  163.2203 C.ar    1  UNL1        0.0791
      5 C         142.7332  142.0862  162.0103 C.ar    1  UNL1        0.0999
      6 C         142.3351  142.9225  160.8304 C.ar    1  UNL1        0.0389
      7 N         143.9294  141.2184  162.2676 N.ar    1  UNL1       -0.2232
      8 C         143.7842  140.6231  163.6367 C.ar    1  UNL1        0.2167
      9 N         142.4983  141.1230  164.2255 N.ar    1  UNL1       -0.3040
     10 C         140.2564  145.3723  158.5008 C.3     1  UNL1        0.1816
     11 S         140.6545  144.5360  159.6807 S.O2    1  UNL1        0.0105
     12 O         142.0231  145.1492  159.6535 O.2     1  UNL1       -0.1686
     13 O         139.2858  143.9228  159.7078 O.2     1  UNL1       -0.1686
     14 C         144.7545  139.6915  164.3006 C.3     1  UNL1        0.4506
     15 F         145.7247  138.7599  164.9644 F       1  UNL1       -0.1632
     16 F         143.7702  138.5681  164.1626 F       1  UNL1       -0.1632
     17 F         145.7388  140.8150  164.4386 F       1  UNL1       -0.1632
     18 C         141.9569  140.7790  165.5815 C.3     1  UNL1        0.1341
     19 C         140.7461  139.9024  165.7054 C.ar    1  UNL1        0.0004
     20 C         139.7706  140.1244  166.8230 C.ar    1  UNL1       -0.0024
     21 C         138.5597  139.2477  166.9469 C.ar    1  UNL1       -0.0003
     22 C         138.3244  138.1490  165.9532 C.ar    1  UNL1       -0.0000
     23 C         139.3000  137.9269  164.8356 C.ar    1  UNL1       -0.0003
     24 C         140.5108  138.8036  164.7117 C.ar    1  UNL1       -0.0024
@<TRIPOS>BOND
     1    10    11    1
     2    11    12    2
     3    11    13    2
     4    11     1    1
     5     1     2   ar
     6     2     3   ar
     7     3     4   ar
     8     4     5   ar
     9     5     6   ar
    10     5     7   ar
    11     7     8   ar
    12     8    14    1
    13    14    15    1
    14    14    16    1
    15    14    17    1
    16     8     9   ar
    17     9    18    1
    18    18    19    1
    19    19    20   ar
    20    20    21   ar
    21    21    22   ar
    22    22    23   ar
    23    23    24   ar
    24     6     1   ar
    25    24    19   ar
    26     9     4   ar
@<TRIPOS>MOLECULE
*****
 24 26 0 0 0
SMALL
GASTEIGER

@<TRIPOS>ATOM
      1 C         140.1562  140.9542  168.4947 C.ar    1  UNL1        0.1073
      2 C         140.6923  142.2216  167.8979 C.ar    1  UNL1        0.0199
      3 C         140.4505  142.5297  166.4500 C.ar    1  UNL1        0.0201
      4 C         139.6726  141.5704  165.5988 C.ar    1  UNL1        0.0791
      5 C         139.1364  140.3030  166.1956 C.ar    1  UNL1        0.0999
      6 C         139.3782  139.9949  167.6436 C.ar    1  UNL1        0.0389
      7 N         138.4107  139.5537  165.1176 N.ar    1  UNL1       -0.2232
      8 C         138.4984  140.3581  163.8545 C.ar    1  UNL1        0.2167
      9 N         139.2783  141.6045  164.1520 N.ar    1  UNL1       -0.3040
     10 C         140.6398  140.3379  171.3906 C.3     1  UNL1        0.1816
     11 S         140.3980  140.6460  169.9427 S.O2    1  UNL1        0.0105
     12 O         139.1334  139.8403  169.9824 O.2     1  UNL1       -0.1686
     13 O         141.6626  141.4518  169.9029 O.2     1  UNL1       -0.1686
     14 C         137.9096  139.9822  162.5271 C.3     1  UNL1        0.4506
     15 F         137.3208  139.6063  161.1997 F       1  UNL1       -0.1632
     16 F         136.8898  141.0727  162.6706 F       1  UNL1       -0.1632
     17 F         138.9295  138.8916  162.3836 F       1  UNL1       -0.1632
     18 C         139.6062  142.6937  163.1742 C.3     1  UNL1        0.1341
     19 C         140.9299  143.3953  163.2491 C.ar    1  UNL1        0.0004
     20 C         140.9966  144.8255  163.6964 C.ar    1  UNL1       -0.0024
     21 C         142.3204  145.5270  163.7712 C.ar    1  UNL1       -0.0003
     22 C         143.5775  144.7983  163.3988 C.ar    1  UNL1       -0.0000
     23 C         143.5108  143.3681  162.9515 C.ar    1  UNL1       -0.0003
     24 C         142.1871  142.6666  162.8767 C.ar    1  UNL1       -0.0024
@<TRIPOS>BOND
     1    10    11    1
     2    11    12    2
     3    11    13    2
     4    11     1    1
     5     1     2   ar
     6     2     3   ar
     7     3     4   ar
     8     4     5   ar
     9     5     6   ar
    10     5     7   ar
    11     7     8   ar
    12     8    14    1
    13    14    15    1
    14    14    16    1
    15    14    17    1
    16     8     9   ar
    17     9    18    1
    18    18    19    1
    19    19    20   ar
    20    20    21   ar
    21    21    22   ar
    22    22    23   ar
    23    23    24   ar
    24     6     1   ar
    25    24    19   ar
    26     9     4   ar
