@<TRIPOS>MOLECULE
*****
 27 29 0 0 0
SMALL
GASTEIGER

@<TRIPOS>ATOM
      1 C         144.4500  139.9975  163.3283 C.ar    1  UNL1        0.2302
      2 C         144.5766  139.6957  164.7921 C.ar    1  UNL1        0.0922
      3 C         143.6692  138.6865  165.4311 C.ar    1  UNL1        0.1412
      4 N         142.6352  137.9792  164.6062 N.ar    1  UNL1       -0.1985
      5 C         142.5087  138.2809  163.1423 C.ar    1  UNL1        0.2208
      6 N         143.4161  139.2901  162.5034 N.ar    1  UNL1       -0.1788
      7 C         144.7848  142.0835  161.8162 C.3     1  UNL1        0.2542
      8 O         145.3574  141.0066  162.6893 O.3     1  UNL1       -0.4560
      9 N         143.7958  138.3848  166.8950 N.pl3   1  UNL1       -0.2780
     10 H         144.4903  137.7627  167.2111 H       1  UNL1        0.1555
     11 C         142.8642  139.0308  167.8772 C.ar    1  UNL1        0.1643
     12 N         142.9703  138.9588  169.3717 N.ar    1  UNL1       -0.2228
     13 C         141.8346  139.7458  169.9555 C.ar    1  UNL1        0.1030
     14 C         141.0266  140.3042  168.8218 C.ar    1  UNL1        0.0293
     15 C         139.7980  141.1551  168.9501 C.3     1  UNL1        0.0399
     16 S         141.6629  139.8624  167.5374 S.2     1  UNL1       -0.0557
     17 N         141.4747  137.5735  162.3173 N.pl3   1  UNL1       -0.2980
     18 H         141.7367  136.8209  161.7393 H       1  UNL1        0.1500
     19 C         140.0416  138.0128  162.3732 C.3     1  UNL1        0.1306
     20 C         139.2650  138.2017  161.1038 C.3     1  UNL1        0.0295
     21 C         139.3849  138.2632  163.6984 C.ar    1  UNL1        0.1570
     22 N         139.1080  139.6682  164.1446 N.ar    1  UNL1       -0.2251
     23 C         138.4514  139.9187  165.4698 C.ar    1  UNL1        0.1314
     24 C         138.0717  138.7640  166.3487 C.ar    1  UNL1        0.1783
     25 F         137.4151  139.0145  167.6739 F       1  UNL1       -0.2009
     26 C         138.3487  137.3589  165.9026 C.ar    1  UNL1        0.1314
     27 N         139.0053  137.1085  164.5774 N.ar    1  UNL1       -0.2251
@<TRIPOS>BOND
     1     7     8    1
     2     8     1    1
     3     1     2   ar
     4     2     3   ar
     5     3     9    1
     6     9    11    1
     7    11    12   ar
     8    12    13   ar
     9    13    14   ar
    10    14    15    1
    11    14    16   ar
    12     3     4   ar
    13     4     5   ar
    14     5    17    1
    15    17    19    1
    16    19    20    1
    17    19    21    1
    18    21    22   ar
    19    22    23   ar
    20    23    24   ar
    21    24    25    1
    22    24    26   ar
    23    26    27   ar
    24     5     6   ar
    25     6     1   ar
    26    16    11   ar
    27    27    21   ar
    28     9    10    1
    29    17    18    1
@<TRIPOS>MOLECULE
*****
 27 29 0 0 0
SMALL
GASTEIGER

@<TRIPOS>ATOM
      1 C         140.2015  143.7944  158.9338 C.ar    1  UNL1        0.2302
      2 C         141.4062  144.3565  159.6286 C.ar    1  UNL1        0.0922
      3 C         141.3911  144.5519  161.1157 C.ar    1  UNL1        0.1412
      4 N         140.1714  144.1854  161.9081 N.ar    1  UNL1       -0.1985
      5 C         138.9667  143.6233  161.2133 C.ar    1  UNL1        0.2208
      6 N         138.9818  143.4278  159.7261 N.ar    1  UNL1       -0.1788
      7 C         138.9251  143.5056  156.6894 C.3     1  UNL1        0.2542
      8 O         140.2165  143.5989  157.4467 O.3     1  UNL1       -0.4560
      9 N         142.5959  145.1141  161.8105 N.pl3   1  UNL1       -0.2780
     10 H         142.8761  146.0417  161.6369 H       1  UNL1        0.1555
     11 C         143.3736  144.2627  162.7699 C.ar    1  UNL1        0.1643
     12 N         143.3864  144.4037  164.2632 N.ar    1  UNL1       -0.2228
     13 C         144.2958  143.3490  164.8206 C.ar    1  UNL1        0.1030
     14 C         144.8451  142.5563  163.6718 C.ar    1  UNL1        0.0293
     15 C         145.7972  141.4016  163.7726 C.3     1  UNL1        0.0399
     16 S         144.2751  143.1210  162.4044 S.2     1  UNL1       -0.0557
     17 N         137.7469  143.2567  162.0056 N.pl3   1  UNL1       -0.2980
     18 H         136.8620  143.2545  161.5742 H       1  UNL1        0.1500
     19 C         137.8754  142.8933  163.4552 C.3     1  UNL1        0.1306
     20 C         137.7269  143.9500  164.5094 C.3     1  UNL1        0.0295
     21 C         138.1524  141.4731  163.8507 C.ar    1  UNL1        0.1570
     22 N         138.4579  141.1388  165.2807 N.ar    1  UNL1       -0.2251
     23 C         138.7349  139.7186  165.6762 C.ar    1  UNL1        0.1314
     24 C         138.7065  138.6328  164.6417 C.ar    1  UNL1        0.1783
     25 F         138.9835  137.2126  165.0372 F       1  UNL1       -0.2009
     26 C         138.4010  138.9671  163.2116 C.ar    1  UNL1        0.1314
     27 N         138.1240  140.3873  162.8161 N.ar    1  UNL1       -0.2251
@<TRIPOS>BOND
     1     7     8    1
     2     8     1    1
     3     1     2   ar
     4     2     3   ar
     5     3     9    1
     6     9    11    1
     7    11    12   ar
     8    12    13   ar
     9    13    14   ar
    10    14    15    1
    11    14    16   ar
    12     3     4   ar
    13     4     5   ar
    14     5    17    1
    15    17    19    1
    16    19    20    1
    17    19    21    1
    18    21    22   ar
    19    22    23   ar
    20    23    24   ar
    21    24    25    1
    22    24    26   ar
    23    26    27   ar
    24     5     6   ar
    25     6     1   ar
    26    16    11   ar
    27    27    21   ar
    28     9    10    1
    29    17    18    1
@<TRIPOS>MOLECULE
*****
 27 29 0 0 0
SMALL
GASTEIGER

@<TRIPOS>ATOM
      1 C         139.0892  139.1292  159.2236 C.ar    1  UNL1        0.2302
      2 C         138.1182  139.9057  160.0628 C.ar    1  UNL1        0.0922
      3 C         138.2404  139.8916  161.5578 C.ar    1  UNL1        0.1412
      4 N         139.3336  139.1011  162.2135 N.ar    1  UNL1       -0.1985
      5 C         140.3045  138.3247  161.3743 C.ar    1  UNL1        0.2208
      6 N         140.1823  138.3387  159.8793 N.ar    1  UNL1       -0.1788
      7 C         140.1567  139.4863  156.8821 C.3     1  UNL1        0.2542
      8 O         138.9670  139.1433  157.7287 O.3     1  UNL1       -0.4560
      9 N         137.2694  140.6681  162.3970 N.pl3   1  UNL1       -0.2780
     10 H         136.4091  140.2647  162.6548 H       1  UNL1        0.1555
     11 C         137.6091  142.0593  162.8434 C.ar    1  UNL1        0.1643
     12 N         137.6969  143.2709  161.9636 N.ar    1  UNL1       -0.2228
     13 C         138.0627  144.4435  162.8245 C.ar    1  UNL1        0.1030
     14 C         138.2011  143.9566  164.2365 C.ar    1  UNL1        0.0293
     15 C         138.5573  144.7958  165.4276 C.3     1  UNL1        0.0399
     16 S         137.9208  142.4830  164.2482 S.2     1  UNL1       -0.0557
     17 N         141.3978  137.5341  162.0300 N.pl3   1  UNL1       -0.2980
     18 H         141.8438  136.8080  161.5370 H       1  UNL1        0.1500
     19 C         141.8114  137.8499  163.4368 C.3     1  UNL1        0.1306
     20 C         141.2825  137.0298  164.5761 C.3     1  UNL1        0.0295
     21 C         142.7539  138.9856  163.7045 C.ar    1  UNL1        0.1570
     22 N         143.8756  139.2703  162.7501 N.ar    1  UNL1       -0.2251
     23 C         144.8181  140.4060  163.0178 C.ar    1  UNL1        0.1314
     24 C         144.6390  141.2572  164.2398 C.ar    1  UNL1        0.1783
     25 F         145.5815  142.3930  164.5075 F       1  UNL1       -0.2009
     26 C         143.5173  140.9726  165.1943 C.ar    1  UNL1        0.1314
     27 N         142.5748  139.8368  164.9266 N.ar    1  UNL1       -0.2251
@<TRIPOS>BOND
     1     7     8    1
     2     8     1    1
     3     1     2   ar
     4     2     3   ar
     5     3     9    1
     6     9    11    1
     7    11    12   ar
     8    12    13   ar
     9    13    14   ar
    10    14    15    1
    11    14    16   ar
    12     3     4   ar
    13     4     5   ar
    14     5    17    1
    15    17    19    1
    16    19    20    1
    17    19    21    1
    18    21    22   ar
    19    22    23   ar
    20    23    24   ar
    21    24    25    1
    22    24    26   ar
    23    26    27   ar
    24     5     6   ar
    25     6     1   ar
    26    16    11   ar
    27    27    21   ar
    28     9    10    1
    29    17    18    1
@<TRIPOS>MOLECULE
*****
 27 29 0 0 0
SMALL
GASTEIGER

@<TRIPOS>ATOM
      1 C         138.6912  144.7066  162.8149 C.ar    1  UNL1        0.2302
      2 C         139.2869  144.7714  164.1900 C.ar    1  UNL1        0.0922
      3 C         139.1315  143.6128  165.1300 C.ar    1  UNL1        0.1412
      4 N         138.3804  142.3895  164.6949 N.ar    1  UNL1       -0.1985
      5 C         137.7847  142.3248  163.3199 C.ar    1  UNL1        0.2208
      6 N         137.9400  143.4833  162.3799 N.ar    1  UNL1       -0.1788
      7 C         140.0280  145.9297  160.9529 C.3     1  UNL1        0.2542
      8 O         138.8466  145.8652  161.8749 O.3     1  UNL1       -0.4560
      9 N         139.7273  143.6776  166.5051 N.pl3   1  UNL1       -0.2780
     10 H         139.4544  144.3906  167.1268 H       1  UNL1        0.1555
     11 C         140.7390  142.6561  166.9330 C.ar    1  UNL1        0.1643
     12 N         141.5230  141.7570  166.0238 N.ar    1  UNL1       -0.2228
     13 C         142.4128  140.8995  166.8741 C.ar    1  UNL1        0.1030
     14 C         142.1787  141.2688  168.3090 C.ar    1  UNL1        0.0293
     15 C         142.8596  140.6595  169.4986 C.3     1  UNL1        0.0399
     16 S         141.1443  142.3544  168.3454 S.2     1  UNL1       -0.0557
     17 N         137.0335  141.1015  162.8848 N.pl3   1  UNL1       -0.2980
     18 H         136.0534  141.0686  162.9721 H       1  UNL1        0.1500
     19 C         137.7755  139.9282  162.3166 C.3     1  UNL1        0.1306
     20 C         137.3673  139.3520  160.9932 C.3     1  UNL1        0.0295
     21 C         138.9258  139.3312  163.0718 C.ar    1  UNL1        0.1570
     22 N         140.3342  139.6157  162.6412 N.ar    1  UNL1       -0.2251
     23 C         141.4845  139.0186  163.3965 C.ar    1  UNL1        0.1314
     24 C         141.2264  138.1370  164.5823 C.ar    1  UNL1        0.1783
     25 F         142.3767  137.5400  165.3375 F       1  UNL1       -0.2009
     26 C         139.8179  137.8525  165.0129 C.ar    1  UNL1        0.1314
     27 N         138.6676  138.4496  164.2577 N.ar    1  UNL1       -0.2251
@<TRIPOS>BOND
     1     7     8    1
     2     8     1    1
     3     1     2   ar
     4     2     3   ar
     5     3     9    1
     6     9    11    1
     7    11    12   ar
     8    12    13   ar
     9    13    14   ar
    10    14    15    1
    11    14    16   ar
    12     3     4   ar
    13     4     5   ar
    14     5    17    1
    15    17    19    1
    16    19    20    1
    17    19    21    1
    18    21    22   ar
    19    22    23   ar
    20    23    24   ar
    21    24    25    1
    22    24    26   ar
    23    26    27   ar
    24     5     6   ar
    25     6     1   ar
    26    16    11   ar
    27    27    21   ar
    28     9    10    1
    29    17    18    1
@<TRIPOS>MOLECULE
*****
 27 29 0 0 0
SMALL
GASTEIGER

@<TRIPOS>ATOM
      1 C         138.5393  139.8134  162.1512 C.ar    1  UNL1        0.2302
      2 C         138.0470  139.7471  163.5665 C.ar    1  UNL1        0.0922
      3 C         138.7434  138.8676  164.5624 C.ar    1  UNL1        0.1412
      4 N         139.9320  138.0545  164.1429 N.ar    1  UNL1       -0.1985
      5 C         140.4243  138.1209  162.7276 C.ar    1  UNL1        0.2208
      6 N         139.7280  139.0003  161.7318 N.ar    1  UNL1       -0.1788
      7 C         138.4049  142.0440  160.8260 C.3     1  UNL1        0.2542
      8 O         137.8430  140.6928  161.1554 O.3     1  UNL1       -0.4560
      9 N         138.2510  138.8013  165.9778 N.pl3   1  UNL1       -0.2780
     10 H         137.4997  138.2091  166.2104 H       1  UNL1        0.1555
     11 C         138.9033  139.6373  167.0387 C.ar    1  UNL1        0.1643
     12 N         138.7313  139.4739  168.5198 N.ar    1  UNL1       -0.2228
     13 C         139.5639  140.5191  169.2013 C.ar    1  UNL1        0.1030
     14 C         140.2506  141.3284  168.1414 C.ar    1  UNL1        0.0293
     15 C         141.1819  142.4805  168.3767 C.3     1  UNL1        0.0399
     16 S         139.8423  140.7834  166.8049 S.2     1  UNL1       -0.0557
     17 N         141.6130  137.3078  162.3081 N.pl3   1  UNL1       -0.2980
     18 H         141.6511  136.3468  162.5186 H       1  UNL1        0.1500
     19 C         142.7435  137.9588  161.5678 C.3     1  UNL1        0.1306
     20 C         143.0448  137.5566  160.1545 C.3     1  UNL1        0.0295
     21 C         143.5727  139.0121  162.2408 C.ar    1  UNL1        0.1570
     22 N         144.0220  140.2184  161.4709 N.ar    1  UNL1       -0.2251
     23 C         144.8513  141.2717  162.1439 C.ar    1  UNL1        0.1314
     24 C         145.2313  141.1186  163.5869 C.ar    1  UNL1        0.1783
     25 F         146.0605  142.1719  164.2599 F       1  UNL1       -0.2009
     26 C         144.7820  139.9122  164.3569 C.ar    1  UNL1        0.1314
     27 N         143.9527  138.8590  163.6839 N.ar    1  UNL1       -0.2251
@<TRIPOS>BOND
     1     7     8    1
     2     8     1    1
     3     1     2   ar
     4     2     3   ar
     5     3     9    1
     6     9    11    1
     7    11    12   ar
     8    12    13   ar
     9    13    14   ar
    10    14    15    1
    11    14    16   ar
    12     3     4   ar
    13     4     5   ar
    14     5    17    1
    15    17    19    1
    16    19    20    1
    17    19    21    1
    18    21    22   ar
    19    22    23   ar
    20    23    24   ar
    21    24    25    1
    22    24    26   ar
    23    26    27   ar
    24     5     6   ar
    25     6     1   ar
    26    16    11   ar
    27    27    21   ar
    28     9    10    1
    29    17    18    1
@<TRIPOS>MOLECULE
*****
 27 29 0 0 0
SMALL
GASTEIGER

@<TRIPOS>ATOM
      1 C         142.1966  144.3590  160.9571 C.ar    1  UNL1        0.2302
      2 C         143.3201  143.7700  161.7575 C.ar    1  UNL1        0.0922
      3 C         143.2452  143.7528  163.2555 C.ar    1  UNL1        0.1412
      4 N         142.0467  144.3246  163.9531 N.ar    1  UNL1       -0.1985
      5 C         140.9231  144.9135  163.1527 C.ar    1  UNL1        0.2208
      6 N         140.9981  144.9307  161.6547 N.ar    1  UNL1       -0.1788
      7 C         141.8101  143.1860  158.6713 C.3     1  UNL1        0.2542
      8 O         142.2715  144.3762  159.4590 O.3     1  UNL1       -0.4560
      9 N         144.3688  143.1638  164.0560 N.pl3   1  UNL1       -0.2780
     10 H         145.0899  143.7433  164.3927 H       1  UNL1        0.1555
     11 C         144.3937  141.6918  164.3433 C.ar    1  UNL1        0.1643
     12 N         145.4252  140.7163  163.8592 N.ar    1  UNL1       -0.2228
     13 C         145.0605  139.3584  164.3819 C.ar    1  UNL1        0.1030
     14 C         143.8035  139.4947  165.1891 C.ar    1  UNL1        0.0293
     15 C         143.0848  138.3840  165.8960 C.3     1  UNL1        0.0399
     16 S         143.3914  140.9368  165.1652 S.2     1  UNL1       -0.0557
     17 N         139.7246  145.4853  163.8503 N.pl3   1  UNL1       -0.2980
     18 H         139.5346  146.4496  163.7921 H       1  UNL1        0.1500
     19 C         138.8154  144.5880  164.6365 C.3     1  UNL1        0.1306
     20 C         138.2001  145.0770  165.9142 C.3     1  UNL1        0.0295
     21 C         138.5215  143.2015  164.1452 C.ar    1  UNL1        0.1570
     22 N         138.8425  142.0166  165.0071 N.ar    1  UNL1       -0.2251
     23 C         138.5486  140.6302  164.5157 C.ar    1  UNL1        0.1314
     24 C         137.9338  140.4286  163.1625 C.ar    1  UNL1        0.1783
     25 F         137.6399  139.0422  162.6712 F       1  UNL1       -0.2009
     26 C         137.6128  141.6136  162.3005 C.ar    1  UNL1        0.1314
     27 N         137.9067  143.0000  162.7919 N.ar    1  UNL1       -0.2251
@<TRIPOS>BOND
     1     7     8    1
     2     8     1    1
     3     1     2   ar
     4     2     3   ar
     5     3     9    1
     6     9    11    1
     7    11    12   ar
     8    12    13   ar
     9    13    14   ar
    10    14    15    1
    11    14    16   ar
    12     3     4   ar
    13     4     5   ar
    14     5    17    1
    15    17    19    1
    16    19    20    1
    17    19    21    1
    18    21    22   ar
    19    22    23   ar
    20    23    24   ar
    21    24    25    1
    22    24    26   ar
    23    26    27   ar
    24     5     6   ar
    25     6     1   ar
    26    16    11   ar
    27    27    21   ar
    28     9    10    1
    29    17    18    1
@<TRIPOS>MOLECULE
*****
 27 29 0 0 0
SMALL
GASTEIGER

@<TRIPOS>ATOM
      1 C         140.5975  139.8812  168.8617 C.ar    1  UNL1        0.2302
      2 C         139.3543  139.8445  168.0233 C.ar    1  UNL1        0.0922
      3 C         139.4563  139.6577  166.5385 C.ar    1  UNL1        0.1412
      4 N         140.8015  139.5075  165.8921 N.ar    1  UNL1       -0.1985
      5 C         142.0447  139.5441  166.7305 C.ar    1  UNL1        0.2208
      6 N         141.9427  139.7309  168.2153 N.ar    1  UNL1       -0.1788
      7 C         141.3494  141.0918  171.0340 C.3     1  UNL1        0.2542
      8 O         140.4955  140.0680  170.3465 O.3     1  UNL1       -0.4560
      9 N         138.2130  139.6210  165.7000 N.pl3   1  UNL1       -0.2780
     10 H         137.4923  138.9859  165.9157 H       1  UNL1        0.1555
     11 C         138.0677  140.5521  164.5329 C.ar    1  UNL1        0.1643
     12 N         137.8316  140.1491  163.1075 N.ar    1  UNL1       -0.2228
     13 C         137.7511  141.3975  162.2800 C.ar    1  UNL1        0.1030
     14 C         137.9373  142.5722  163.1940 C.ar    1  UNL1        0.0293
     15 C         137.9293  144.0160  162.7871 C.3     1  UNL1        0.0399
     16 S         138.1330  142.0497  164.5864 S.2     1  UNL1       -0.0557
     17 N         143.3900  139.3939  166.0842 N.pl3   1  UNL1       -0.2980
     18 H         144.1036  138.8946  166.5431 H       1  UNL1        0.1500
     19 C         143.6479  140.0044  164.7385 C.3     1  UNL1        0.1306
     20 C         144.2101  139.1653  163.6295 C.3     1  UNL1        0.0295
     21 C         143.3436  141.4540  164.5018 C.ar    1  UNL1        0.1570
     22 N         142.0740  141.8503  163.8082 N.ar    1  UNL1       -0.2251
     23 C         141.7697  143.2999  163.5715 C.ar    1  UNL1        0.1314
     24 C         142.7350  144.3532  164.0284 C.ar    1  UNL1        0.1783
     25 F         142.4307  145.8028  163.7917 F       1  UNL1       -0.2009
     26 C         144.0046  143.9569  164.7220 C.ar    1  UNL1        0.1314
     27 N         144.3089  142.5073  164.9587 N.ar    1  UNL1       -0.2251
@<TRIPOS>BOND
     1     7     8    1
     2     8     1    1
     3     1     2   ar
     4     2     3   ar
     5     3     9    1
     6     9    11    1
     7    11    12   ar
     8    12    13   ar
     9    13    14   ar
    10    14    15    1
    11    14    16   ar
    12     3     4   ar
    13     4     5   ar
    14     5    17    1
    15    17    19    1
    16    19    20    1
    17    19    21    1
    18    21    22   ar
    19    22    23   ar
    20    23    24   ar
    21    24    25    1
    22    24    26   ar
    23    26    27   ar
    24     5     6   ar
    25     6     1   ar
    26    16    11   ar
    27    27    21   ar
    28     9    10    1
    29    17    18    1
@<TRIPOS>MOLECULE
*****
 27 29 0 0 0
SMALL
GASTEIGER

@<TRIPOS>ATOM
      1 C         139.1345  139.1627  159.4133 C.ar    1  UNL1        0.2302
      2 C         140.2610  138.3755  160.0143 C.ar    1  UNL1        0.0922
      3 C         140.4093  138.2966  161.5048 C.ar    1  UNL1        0.1412
      4 N         139.4311  139.0049  162.3944 N.ar    1  UNL1       -0.1985
      5 C         138.3046  139.7920  161.7934 C.ar    1  UNL1        0.2208
      6 N         138.1563  139.8709  160.3028 N.ar    1  UNL1       -0.1788
      7 C         139.6942  138.2523  157.0452 C.3     1  UNL1        0.2542
      8 O         138.9862  139.2416  157.9227 O.3     1  UNL1       -0.4560
      9 N         141.5360  137.5094  162.1058 N.pl3   1  UNL1       -0.2780
     10 H         141.7502  136.6132  161.7590 H       1  UNL1        0.1555
     11 C         142.3361  138.0876  163.2351 C.ar    1  UNL1        0.1643
     12 N         143.6420  138.8147  163.1087 N.ar    1  UNL1       -0.2228
     13 C         144.0839  139.2167  164.4846 C.ar    1  UNL1        0.1030
     14 C         143.0511  138.7381  165.4614 C.ar    1  UNL1        0.0293
     15 C         143.0914  138.9245  166.9492 C.3     1  UNL1        0.0399
     16 S         141.9710  138.0402  164.6892 S.2     1  UNL1       -0.0557
     17 N         137.3263  140.5004  162.6830 N.pl3   1  UNL1       -0.2980
     18 H         136.3641  140.3053  162.6102 H       1  UNL1        0.1500
     19 C         137.8141  141.5059  163.6834 C.3     1  UNL1        0.1306
     20 C         137.6888  142.9726  163.3949 C.3     1  UNL1        0.0295
     21 C         138.4271  141.0448  164.9725 C.ar    1  UNL1        0.1570
     22 N         138.0288  139.7245  165.5624 N.ar    1  UNL1       -0.2251
     23 C         138.6418  139.2634  166.8514 C.ar    1  UNL1        0.1314
     24 C         139.6532  140.1227  167.5505 C.ar    1  UNL1        0.1783
     25 F         140.2662  139.6616  168.8395 F       1  UNL1       -0.2009
     26 C         140.0516  141.4431  166.9606 C.ar    1  UNL1        0.1314
     27 N         139.4385  141.9041  165.6716 N.ar    1  UNL1       -0.2251
@<TRIPOS>BOND
     1     7     8    1
     2     8     1    1
     3     1     2   ar
     4     2     3   ar
     5     3     9    1
     6     9    11    1
     7    11    12   ar
     8    12    13   ar
     9    13    14   ar
    10    14    15    1
    11    14    16   ar
    12     3     4   ar
    13     4     5   ar
    14     5    17    1
    15    17    19    1
    16    19    20    1
    17    19    21    1
    18    21    22   ar
    19    22    23   ar
    20    23    24   ar
    21    24    25    1
    22    24    26   ar
    23    26    27   ar
    24     5     6   ar
    25     6     1   ar
    26    16    11   ar
    27    27    21   ar
    28     9    10    1
    29    17    18    1
@<TRIPOS>MOLECULE
*****
 27 29 0 0 0
SMALL
GASTEIGER

@<TRIPOS>ATOM
      1 C         143.5195  142.0690  158.6827 C.ar    1  UNL1        0.2302
      2 C         143.1282  143.3123  159.4250 C.ar    1  UNL1        0.0922
      3 C         143.1580  143.3313  160.9246 C.ar    1  UNL1        0.1412
      4 N         143.5792  142.1069  161.6819 N.ar    1  UNL1       -0.1985
      5 C         143.9705  140.8636  160.9396 C.ar    1  UNL1        0.2208
      6 N         143.9407  140.8447  159.4401 N.ar    1  UNL1       -0.1788
      7 C         142.7937  143.1467  156.4329 C.3     1  UNL1        0.2542
      8 O         143.4897  142.0501  157.1832 O.3     1  UNL1       -0.4560
      9 N         142.7666  144.5747  161.6669 N.pl3   1  UNL1       -0.2780
     10 H         143.4066  145.3176  161.7546 H       1  UNL1        0.1555
     11 C         141.4002  144.6860  162.2755 C.ar    1  UNL1        0.1643
     12 N         140.1098  144.8314  161.5247 N.ar    1  UNL1       -0.2228
     13 C         138.9963  144.9068  162.5269 C.ar    1  UNL1        0.1030
     14 C         139.5985  144.8080  163.8972 C.ar    1  UNL1        0.0293
     15 C         138.8471  144.8400  165.1950 C.3     1  UNL1        0.0399
     16 S         141.0842  144.6716  163.7418 S.2     1  UNL1       -0.0557
     17 N         144.3917  139.6392  161.6969 N.pl3   1  UNL1       -0.2980
     18 H         144.8240  138.8920  161.2235 H       1  UNL1        0.1500
     19 C         144.1542  139.5532  163.1755 C.3     1  UNL1        0.1306
     20 C         145.1861  140.0727  164.1323 C.3     1  UNL1        0.0295
     21 C         142.8849  138.9477  163.6973 C.ar    1  UNL1        0.1570
     22 N         142.2192  137.8351  162.9429 N.ar    1  UNL1       -0.2251
     23 C         140.9499  137.2296  163.4647 C.ar    1  UNL1        0.1314
     24 C         140.3464  137.7366  164.7409 C.ar    1  UNL1        0.1783
     25 F         139.0771  137.1311  165.2627 F       1  UNL1       -0.2009
     26 C         141.0121  138.8492  165.4953 C.ar    1  UNL1        0.1314
     27 N         142.2814  139.4547  164.9735 N.ar    1  UNL1       -0.2251
@<TRIPOS>BOND
     1     7     8    1
     2     8     1    1
     3     1     2   ar
     4     2     3   ar
     5     3     9    1
     6     9    11    1
     7    11    12   ar
     8    12    13   ar
     9    13    14   ar
    10    14    15    1
    11    14    16   ar
    12     3     4   ar
    13     4     5   ar
    14     5    17    1
    15    17    19    1
    16    19    20    1
    17    19    21    1
    18    21    22   ar
    19    22    23   ar
    20    23    24   ar
    21    24    25    1
    22    24    26   ar
    23    26    27   ar
    24     5     6   ar
    25     6     1   ar
    26    16    11   ar
    27    27    21   ar
    28     9    10    1
    29    17    18    1
