@<TRIPOS>MOLECULE
*****
 30 33 0 0 0
SMALL
GASTEIGER

@<TRIPOS>ATOM
      1 C         140.9404  143.5148  169.5553 C.3     1  UNL1        0.0274
      2 C         139.9903  142.3907  169.8450 C.3     1  UNL1        0.1074
      3 C         139.6578  143.3121  170.9810 C.3     1  UNL1        0.0274
      4 N         138.9248  141.5866  170.5292 N.am    1  UNL1       -0.2996
      5 C         138.5217  140.2516  169.9768 C.2     1  UNL1        0.2459
      6 O         137.4562  139.4475  170.6611 O.2     1  UNL1       -0.2730
      7 C         139.1842  139.7205  168.7402 C.3     1  UNL1        0.1935
      8 N         140.2496  140.5246  168.0560 N.ar    1  UNL1       -0.2935
      9 C         140.6527  141.8597  168.6084 C.ar    1  UNL1        0.1376
     10 N         141.7261  142.4222  167.7243 N.ar    1  UNL1       -0.2280
     11 C         141.9864  141.4348  166.6256 C.ar    1  UNL1        0.1125
     12 C         141.0739  140.2620  166.8306 C.ar    1  UNL1        0.1321
     13 H         138.4901  141.9351  171.3408 H       1  UNL1        0.1498
     14 C         142.9840  141.5924  165.5166 C.ar    1  UNL1        0.0205
     15 C         143.8027  140.4170  165.0716 C.ar    1  UNL1        0.0039
     16 C         144.8003  140.5747  163.9625 C.ar    1  UNL1        0.0297
     17 C         144.9792  141.9077  163.2986 C.ar    1  UNL1        0.1401
     18 F         145.9768  142.0654  162.1896 F       1  UNL1       -0.2042
     19 C         144.1605  143.0831  163.7436 C.ar    1  UNL1        0.0297
     20 C         143.1629  142.9255  164.8526 C.ar    1  UNL1        0.0039
     21 N         140.9988  139.0410  165.9625 N.pl3   1  UNL1       -0.2980
     22 H         141.5821  138.2696  166.1466 H       1  UNL1        0.1536
     23 C         140.0351  138.9953  164.8141 C.ar    1  UNL1        0.0504
     24 C         139.9448  137.7661  163.9592 C.ar    1  UNL1        0.0170
     25 C         138.9810  137.7205  162.8107 C.ar    1  UNL1        0.0318
     26 C         138.1075  138.9040  162.5170 C.ar    1  UNL1        0.1507
     27 F         137.1438  138.8584  161.3685 F       1  UNL1       -0.2033
     28 C         138.1978  140.1333  163.3719 C.ar    1  UNL1        0.0863
     29 CL        137.3244  141.3169  163.0783 Cl      1  UNL1       -0.0799
     30 C         139.1616  140.1789  164.5204 C.ar    1  UNL1        0.0283
@<TRIPOS>BOND
     1     1     2    1
     2     2     3    1
     3     2     4    1
     4     4     5   am
     5     5     6    2
     6     5     7    1
     7     7     8    1
     8     8     9   ar
     9     9    10   ar
    10    10    11   ar
    11    11    14    1
    12    14    15   ar
    13    15    16   ar
    14    16    17   ar
    15    17    18    1
    16    17    19   ar
    17    19    20   ar
    18    11    12   ar
    19    12    21    1
    20    21    23    1
    21    23    24   ar
    22    24    25   ar
    23    25    26   ar
    24    26    27    1
    25    26    28   ar
    26    28    29    1
    27    28    30   ar
    28     9     2    1
    29    20    14   ar
    30    30    23   ar
    31    12     8   ar
    32     4    13    1
    33    21    22    1
@<TRIPOS>MOLECULE
*****
 30 33 0 0 0
SMALL
GASTEIGER

@<TRIPOS>ATOM
      1 C         140.5206  142.9135  170.0203 C.3     1  UNL1        0.0274
      2 C         141.2031  141.5778  170.0082 C.3     1  UNL1        0.1074
      3 C         141.0800  141.7940  171.4875 C.3     1  UNL1        0.0274
      4 N         141.8429  140.3172  170.5098 N.am    1  UNL1       -0.2996
      5 C         142.3687  139.3043  169.5364 C.2     1  UNL1        0.2459
      6 O         143.0085  138.0437  170.0380 O.2     1  UNL1       -0.2730
      7 C         142.2548  139.5520  168.0614 C.3     1  UNL1        0.1935
      8 N         141.6150  140.8125  167.5598 N.ar    1  UNL1       -0.2935
      9 C         141.0892  141.8254  168.5332 C.ar    1  UNL1        0.1376
     10 N         140.5128  142.9666  167.7486 N.ar    1  UNL1       -0.2280
     11 C         140.6824  142.6590  166.2904 C.ar    1  UNL1        0.1125
     12 C         141.3636  141.3277  166.1737 C.ar    1  UNL1        0.1321
     13 H         141.9177  140.1547  171.4779 H       1  UNL1        0.1498
     14 C         140.2472  143.5298  165.1491 C.ar    1  UNL1        0.0205
     15 C         141.2695  144.2680  164.3368 C.ar    1  UNL1        0.0039
     16 C         140.8343  145.1388  163.1956 C.ar    1  UNL1        0.0297
     17 C         139.3769  145.2714  162.8667 C.ar    1  UNL1        0.1401
     18 F         138.9417  146.1422  161.7255 F       1  UNL1       -0.2042
     19 C         138.3546  144.5331  163.6790 C.ar    1  UNL1        0.0297
     20 C         138.7898  143.6623  164.8202 C.ar    1  UNL1        0.0039
     21 N         141.7293  140.6334  164.8953 N.pl3   1  UNL1       -0.2980
     22 H         142.6570  140.6630  164.5670 H       1  UNL1        0.1536
     23 C         140.6816  139.8943  164.1170 C.ar    1  UNL1        0.0504
     24 C         140.3708  138.4646  164.4477 C.ar    1  UNL1        0.0170
     25 C         139.3230  137.7254  163.6694 C.ar    1  UNL1        0.0318
     26 C         138.5860  138.4158  162.5603 C.ar    1  UNL1        0.1507
     27 F         137.5382  137.6767  161.7820 F       1  UNL1       -0.2033
     28 C         138.8967  139.8456  162.2295 C.ar    1  UNL1        0.0863
     29 CL        138.1598  140.5361  161.1205 Cl      1  UNL1       -0.0799
     30 C         139.9445  140.5847  163.0079 C.ar    1  UNL1        0.0283
@<TRIPOS>BOND
     1     1     2    1
     2     2     3    1
     3     2     4    1
     4     4     5   am
     5     5     6    2
     6     5     7    1
     7     7     8    1
     8     8     9   ar
     9     9    10   ar
    10    10    11   ar
    11    11    14    1
    12    14    15   ar
    13    15    16   ar
    14    16    17   ar
    15    17    18    1
    16    17    19   ar
    17    19    20   ar
    18    11    12   ar
    19    12    21    1
    20    21    23    1
    21    23    24   ar
    22    24    25   ar
    23    25    26   ar
    24    26    27    1
    25    26    28   ar
    26    28    29    1
    27    28    30   ar
    28     9     2    1
    29    20    14   ar
    30    30    23   ar
    31    12     8   ar
    32     4    13    1
    33    21    22    1
@<TRIPOS>MOLECULE
*****
 30 33 0 0 0
SMALL
GASTEIGER

@<TRIPOS>ATOM
      1 C         140.3368  139.9766  170.0893 C.3     1  UNL1        0.0274
      2 C         141.5340  140.8802  170.1090 C.3     1  UNL1        0.1074
      3 C         141.2881  140.7414  171.5823 C.3     1  UNL1        0.0274
      4 N         142.6458  141.7356  170.6404 N.am    1  UNL1       -0.2996
      5 C         143.5876  142.4159  169.6917 C.2     1  UNL1        0.2459
      6 O         144.6994  143.2713  170.2231 O.2     1  UNL1       -0.2730
      7 C         143.4177  142.2410  168.2117 C.3     1  UNL1        0.1935
      8 N         142.3060  141.3856  167.6804 N.ar    1  UNL1       -0.2935
      9 C         141.3641  140.7053  168.6290 C.ar    1  UNL1        0.1376
     10 N         140.3693  139.9293  167.8177 N.ar    1  UNL1       -0.2280
     11 C         140.6963  140.1300  166.3676 C.ar    1  UNL1        0.1125
     12 C         141.8933  141.0301  166.2828 C.ar    1  UNL1        0.1321
     13 H         142.7573  141.8504  171.6118 H       1  UNL1        0.1498
     14 C         139.9564  139.5352  165.2064 C.ar    1  UNL1        0.0205
     15 C         138.8528  140.3068  164.5455 C.ar    1  UNL1        0.0039
     16 C         138.1128  139.7119  163.3843 C.ar    1  UNL1        0.0297
     17 C         138.4764  138.3455  162.8838 C.ar    1  UNL1        0.1401
     18 F         137.7364  137.7506  161.7225 F       1  UNL1       -0.2042
     19 C         139.5800  137.5739  163.5446 C.ar    1  UNL1        0.0297
     20 C         140.3199  138.1687  164.7059 C.ar    1  UNL1        0.0039
     21 N         142.5604  141.4934  165.0217 N.pl3   1  UNL1       -0.2980
     22 H         143.3397  141.0058  164.6693 H       1  UNL1        0.1536
     23 C         142.0402  142.6995  164.2974 C.ar    1  UNL1        0.0504
     24 C         142.8339  143.3010  163.1757 C.ar    1  UNL1        0.0170
     25 C         142.3136  144.5072  162.4515 C.ar    1  UNL1        0.0318
     26 C         140.9997  145.1118  162.8489 C.ar    1  UNL1        0.1507
     27 F         140.4794  146.3179  162.1246 F       1  UNL1       -0.2033
     28 C         140.2059  144.5103  163.9706 C.ar    1  UNL1        0.0863
     29 CL        138.8920  145.1149  164.3681 Cl      1  UNL1       -0.0799
     30 C         140.7262  143.3042  164.6948 C.ar    1  UNL1        0.0283
@<TRIPOS>BOND
     1     1     2    1
     2     2     3    1
     3     2     4    1
     4     4     5   am
     5     5     6    2
     6     5     7    1
     7     7     8    1
     8     8     9   ar
     9     9    10   ar
    10    10    11   ar
    11    11    14    1
    12    14    15   ar
    13    15    16   ar
    14    16    17   ar
    15    17    18    1
    16    17    19   ar
    17    19    20   ar
    18    11    12   ar
    19    12    21    1
    20    21    23    1
    21    23    24   ar
    22    24    25   ar
    23    25    26   ar
    24    26    27    1
    25    26    28   ar
    26    28    29    1
    27    28    30   ar
    28     9     2    1
    29    20    14   ar
    30    30    23   ar
    31    12     8   ar
    32     4    13    1
    33    21    22    1
@<TRIPOS>MOLECULE
*****
 30 33 0 0 0
SMALL
GASTEIGER

@<TRIPOS>ATOM
      1 C         140.2600  142.5406  169.9407 C.3     1  UNL1        0.0274
      2 C         141.0739  141.2806  169.9255 C.3     1  UNL1        0.1074
      3 C         140.7611  141.3709  171.3897 C.3     1  UNL1        0.0274
      4 N         141.7791  140.0521  170.4187 N.am    1  UNL1       -0.2996
      5 C         142.5144  139.1707  169.4530 C.2     1  UNL1        0.2459
      6 O         143.2197  137.9421  169.9463 O.2     1  UNL1       -0.2730
      7 C         142.5445  139.5179  167.9941 C.3     1  UNL1        0.1935
      8 N         141.8393  140.7465  167.5008 N.ar    1  UNL1       -0.2935
      9 C         141.1040  141.6278  168.4665 C.ar    1  UNL1        0.1376
     10 N         140.5060  142.7654  167.6930 N.ar    1  UNL1       -0.2280
     11 C         140.8718  142.5871  166.2492 C.ar    1  UNL1        0.1125
     12 C         141.6958  141.3394  166.1305 C.ar    1  UNL1        0.1321
     13 H         141.7594  139.8242  171.3762 H       1  UNL1        0.1498
     14 C         140.4820  143.4969  165.1221 C.ar    1  UNL1        0.0205
     15 C         139.0387  143.6423  164.7405 C.ar    1  UNL1        0.0039
     16 C         138.6489  144.5521  163.6134 C.ar    1  UNL1        0.0297
     17 C         139.7024  145.3165  162.8679 C.ar    1  UNL1        0.1401
     18 F         139.3126  146.2263  161.7408 F       1  UNL1       -0.2042
     19 C         141.1457  145.1711  163.2495 C.ar    1  UNL1        0.0297
     20 C         141.5355  144.2613  164.3766 C.ar    1  UNL1        0.0039
     21 N         142.2747  140.7823  164.8638 N.pl3   1  UNL1       -0.2980
     22 H         143.2508  140.7062  164.7604 H       1  UNL1        0.1536
     23 C         141.3665  140.3412  163.7546 C.ar    1  UNL1        0.0504
     24 C         141.3522  141.0891  162.4544 C.ar    1  UNL1        0.0170
     25 C         140.4440  140.6479  161.3452 C.ar    1  UNL1        0.0318
     26 C         139.5499  139.4588  161.5360 C.ar    1  UNL1        0.1507
     27 F         138.6417  139.0175  160.4268 F       1  UNL1       -0.2033
     28 C         139.5641  138.7107  162.8362 C.ar    1  UNL1        0.0863
     29 CL        138.6700  137.5215  163.0271 Cl      1  UNL1       -0.0799
     30 C         140.4723  139.1519  163.9454 C.ar    1  UNL1        0.0283
@<TRIPOS>BOND
     1     1     2    1
     2     2     3    1
     3     2     4    1
     4     4     5   am
     5     5     6    2
     6     5     7    1
     7     7     8    1
     8     8     9   ar
     9     9    10   ar
    10    10    11   ar
    11    11    14    1
    12    14    15   ar
    13    15    16   ar
    14    16    17   ar
    15    17    18    1
    16    17    19   ar
    17    19    20   ar
    18    11    12   ar
    19    12    21    1
    20    21    23    1
    21    23    24   ar
    22    24    25   ar
    23    25    26   ar
    24    26    27    1
    25    26    28   ar
    26    28    29    1
    27    28    30   ar
    28     9     2    1
    29    20    14   ar
    30    30    23   ar
    31    12     8   ar
    32     4    13    1
    33    21    22    1
@<TRIPOS>MOLECULE
*****
 30 33 0 0 0
SMALL
GASTEIGER

@<TRIPOS>ATOM
      1 C         140.7287  143.0293  170.0311 C.3     1  UNL1        0.0274
      2 C         141.3451  141.6618  170.0275 C.3     1  UNL1        0.1074
      3 C         141.3750  141.9572  171.4978 C.3     1  UNL1        0.0274
      4 N         141.9719  140.3969  170.5345 N.am    1  UNL1       -0.2996
      5 C         142.3547  139.3116  169.5725 C.2     1  UNL1        0.2459
      6 O         142.9816  138.0466  170.0796 O.2     1  UNL1       -0.2730
      7 C         142.1108  139.4911  168.1034 C.3     1  UNL1        0.1935
      8 N         141.4840  140.7560  167.5964 N.ar    1  UNL1       -0.2935
      9 C         141.1012  141.8414  168.5584 C.ar    1  UNL1        0.1376
     10 N         140.5047  142.9699  167.7706 N.ar    1  UNL1       -0.2280
     11 C         140.5189  142.5821  166.3217 C.ar    1  UNL1        0.1125
     12 C         141.1241  141.2138  166.2140 C.ar    1  UNL1        0.1321
     13 H         142.1321  140.2790  171.4987 H       1  UNL1        0.1498
     14 C         140.0162  143.4160  165.1807 C.ar    1  UNL1        0.0205
     15 C         138.5605  143.3936  164.8197 C.ar    1  UNL1        0.0039
     16 C         138.0577  144.2276  163.6788 C.ar    1  UNL1        0.0297
     17 C         139.0107  145.0840  162.8989 C.ar    1  UNL1        0.1401
     18 F         138.5079  145.9180  161.7579 F       1  UNL1       -0.2042
     19 C         140.4664  145.1065  163.2599 C.ar    1  UNL1        0.0297
     20 C         140.9691  144.2725  164.4008 C.ar    1  UNL1        0.0039
     21 N         141.3329  140.4393  164.9465 N.pl3   1  UNL1       -0.2980
     22 H         140.8311  139.6068  164.7901 H       1  UNL1        0.1536
     23 C         142.3060  140.9331  163.9174 C.ar    1  UNL1        0.0504
     24 C         141.8312  141.2617  162.5330 C.ar    1  UNL1        0.0170
     25 C         142.8044  141.7555  161.5039 C.ar    1  UNL1        0.0318
     26 C         144.2523  141.9207  161.8591 C.ar    1  UNL1        0.1507
     27 F         145.2255  142.4145  160.8300 F       1  UNL1       -0.2033
     28 C         144.7272  141.5920  163.2436 C.ar    1  UNL1        0.0863
     29 CL        146.1751  141.7571  163.5989 Cl      1  UNL1       -0.0799
     30 C         143.7540  141.0982  164.2727 C.ar    1  UNL1        0.0283
@<TRIPOS>BOND
     1     1     2    1
     2     2     3    1
     3     2     4    1
     4     4     5   am
     5     5     6    2
     6     5     7    1
     7     7     8    1
     8     8     9   ar
     9     9    10   ar
    10    10    11   ar
    11    11    14    1
    12    14    15   ar
    13    15    16   ar
    14    16    17   ar
    15    17    18    1
    16    17    19   ar
    17    19    20   ar
    18    11    12   ar
    19    12    21    1
    20    21    23    1
    21    23    24   ar
    22    24    25   ar
    23    25    26   ar
    24    26    27    1
    25    26    28   ar
    26    28    29    1
    27    28    30   ar
    28     9     2    1
    29    20    14   ar
    30    30    23   ar
    31    12     8   ar
    32     4    13    1
    33    21    22    1
@<TRIPOS>MOLECULE
*****
 30 33 0 0 0
SMALL
GASTEIGER

@<TRIPOS>ATOM
      1 C         142.6788  142.4227  169.7983 C.3     1  UNL1        0.0274
      2 C         141.3949  141.6723  169.9950 C.3     1  UNL1        0.1074
      3 C         141.6424  142.1376  171.3994 C.3     1  UNL1        0.0274
      4 N         140.1970  141.0835  170.6793 N.am    1  UNL1       -0.2996
      5 C         139.1975  140.2901  169.8910 C.2     1  UNL1        0.2459
      6 O         137.9995  139.7013  170.5754 O.2     1  UNL1       -0.2730
      7 C         139.3958  140.0854  168.4184 C.3     1  UNL1        0.1935
      8 N         140.5937  140.6742  167.7340 N.ar    1  UNL1       -0.2935
      9 C         141.5932  141.4677  168.5223 C.ar    1  UNL1        0.1376
     10 N         142.6688  141.9238  167.5815 N.ar    1  UNL1       -0.2280
     11 C         142.3340  141.4122  166.2117 C.ar    1  UNL1        0.1125
     12 C         141.0515  140.6400  166.3060 C.ar    1  UNL1        0.1321
     13 H         140.0668  141.2178  171.6459 H       1  UNL1        0.1498
     14 C         143.1401  141.6340  164.9663 C.ar    1  UNL1        0.0205
     15 C         142.8908  142.8452  164.1173 C.ar    1  UNL1        0.0039
     16 C         143.6969  143.0670  162.8719 C.ar    1  UNL1        0.0297
     17 C         144.7524  142.0776  162.4756 C.ar    1  UNL1        0.1401
     18 F         145.5586  142.2994  161.2302 F       1  UNL1       -0.2042
     19 C         145.0018  140.8665  163.3246 C.ar    1  UNL1        0.0297
     20 C         144.1956  140.6447  164.5700 C.ar    1  UNL1        0.0039
     21 N         140.3500  139.9539  165.1714 N.pl3   1  UNL1       -0.2980
     22 H         140.1720  138.9867  165.2157 H       1  UNL1        0.1536
     23 C         139.9198  140.7415  163.9696 C.ar    1  UNL1        0.0504
     24 C         140.4099  140.3559  162.6054 C.ar    1  UNL1        0.0170
     25 C         139.9796  141.1435  161.4035 C.ar    1  UNL1        0.0318
     26 C         139.0592  142.3167  161.5658 C.ar    1  UNL1        0.1507
     27 F         138.6289  143.1044  160.3639 F       1  UNL1       -0.2033
     28 C         138.5691  142.7024  162.9300 C.ar    1  UNL1        0.0863
     29 CL        137.6487  143.8757  163.0924 Cl      1  UNL1       -0.0799
     30 C         138.9994  141.9148  164.1319 C.ar    1  UNL1        0.0283
@<TRIPOS>BOND
     1     1     2    1
     2     2     3    1
     3     2     4    1
     4     4     5   am
     5     5     6    2
     6     5     7    1
     7     7     8    1
     8     8     9   ar
     9     9    10   ar
    10    10    11   ar
    11    11    14    1
    12    14    15   ar
    13    15    16   ar
    14    16    17   ar
    15    17    18    1
    16    17    19   ar
    17    19    20   ar
    18    11    12   ar
    19    12    21    1
    20    21    23    1
    21    23    24   ar
    22    24    25   ar
    23    25    26   ar
    24    26    27    1
    25    26    28   ar
    26    28    29    1
    27    28    30   ar
    28     9     2    1
    29    20    14   ar
    30    30    23   ar
    31    12     8   ar
    32     4    13    1
    33    21    22    1
@<TRIPOS>MOLECULE
*****
 30 33 0 0 0
SMALL
GASTEIGER

@<TRIPOS>ATOM
      1 C         139.9407  144.1930  157.9126 C.3     1  UNL1        0.0274
      2 C         139.2963  142.9631  157.3452 C.3     1  UNL1        0.1074
      3 C         139.8112  143.5924  156.0847 C.3     1  UNL1        0.0274
      4 N         138.8307  141.9517  156.3401 N.am    1  UNL1       -0.2996
      5 C         138.0739  140.7382  156.7925 C.2     1  UNL1        0.2459
      6 O         137.6083  139.7268  155.7873 O.2     1  UNL1       -0.2730
      7 C         137.7828  140.5360  158.2500 C.3     1  UNL1        0.1935
      8 N         138.2484  141.5473  159.2551 N.ar    1  UNL1       -0.2935
      9 C         139.0052  142.7609  158.8027 C.ar    1  UNL1        0.1376
     10 N         139.3348  143.5802  160.0152 N.ar    1  UNL1       -0.2280
     11 C         138.7819  142.8730  161.2169 C.ar    1  UNL1        0.1125
     12 C         138.1104  141.6166  160.7471 C.ar    1  UNL1        0.1321
     13 H         139.0217  142.0844  155.3835 H       1  UNL1        0.1498
     14 C         138.8826  143.3402  162.6387 C.ar    1  UNL1        0.0205
     15 C         137.6905  143.9509  163.3138 C.ar    1  UNL1        0.0039
     16 C         137.7912  144.4181  164.7356 C.ar    1  UNL1        0.0297
     17 C         139.0841  144.2746  165.4824 C.ar    1  UNL1        0.1401
     18 F         139.1849  144.7417  166.9042 F       1  UNL1       -0.2042
     19 C         140.2763  143.6638  164.8073 C.ar    1  UNL1        0.0297
     20 C         140.1755  143.1966  163.3855 C.ar    1  UNL1        0.0039
     21 N         137.4219  140.6068  161.6167 N.pl3   1  UNL1       -0.2980
     22 H         136.4388  140.5561  161.6284 H       1  UNL1        0.1536
     23 C         138.2311  139.6744  162.4685 C.ar    1  UNL1        0.0504
     24 C         138.9883  138.5455  161.8342 C.ar    1  UNL1        0.0170
     25 C         139.7975  137.6131  162.6860 C.ar    1  UNL1        0.0318
     26 C         139.8497  137.8094  164.1722 C.ar    1  UNL1        0.1507
     27 F         140.6589  136.8770  165.0240 F       1  UNL1       -0.2033
     28 C         139.0925  138.9383  164.8066 C.ar    1  UNL1        0.0863
     29 CL        139.1446  139.1348  166.2927 Cl      1  UNL1       -0.0799
     30 C         138.2833  139.8708  163.9547 C.ar    1  UNL1        0.0283
@<TRIPOS>BOND
     1     1     2    1
     2     2     3    1
     3     2     4    1
     4     4     5   am
     5     5     6    2
     6     5     7    1
     7     7     8    1
     8     8     9   ar
     9     9    10   ar
    10    10    11   ar
    11    11    14    1
    12    14    15   ar
    13    15    16   ar
    14    16    17   ar
    15    17    18    1
    16    17    19   ar
    17    19    20   ar
    18    11    12   ar
    19    12    21    1
    20    21    23    1
    21    23    24   ar
    22    24    25   ar
    23    25    26   ar
    24    26    27    1
    25    26    28   ar
    26    28    29    1
    27    28    30   ar
    28     9     2    1
    29    20    14   ar
    30    30    23   ar
    31    12     8   ar
    32     4    13    1
    33    21    22    1
@<TRIPOS>MOLECULE
*****
 30 33 0 0 0
SMALL
GASTEIGER

@<TRIPOS>ATOM
      1 C         139.6309  140.3018  169.5594 C.3     1  UNL1        0.0274
      2 C         140.9469  141.0112  169.6817 C.3     1  UNL1        0.1074
      3 C         140.6479  140.7653  171.1309 C.3     1  UNL1        0.0274
      4 N         142.1591  141.6351  170.3072 N.am    1  UNL1       -0.2996
      5 C         143.2132  142.2586  169.4410 C.2     1  UNL1        0.2459
      6 O         144.4254  142.8826  170.0666 O.2     1  UNL1       -0.2730
      7 C         143.0551  142.2581  167.9494 C.3     1  UNL1        0.1935
      8 N         141.8430  141.6342  167.3239 N.ar    1  UNL1       -0.2935
      9 C         140.7889  141.0107  168.1900 C.ar    1  UNL1        0.1376
     10 N         139.7107  140.4752  167.2951 N.ar    1  UNL1       -0.2280
     11 C         140.0985  140.7677  165.8759 C.ar    1  UNL1        0.1125
     12 C         141.4163  141.4840  165.8938 C.ar    1  UNL1        0.1321
     13 H         142.2628  141.6355  171.2862 H       1  UNL1        0.1498
     14 C         139.3074  140.4072  164.6536 C.ar    1  UNL1        0.0205
     15 C         139.4266  139.0344  164.0609 C.ar    1  UNL1        0.0039
     16 C         138.6355  138.6739  162.8386 C.ar    1  UNL1        0.0297
     17 C         137.7251  139.6861  162.2089 C.ar    1  UNL1        0.1401
     18 F         136.9340  139.3256  160.9865 F       1  UNL1       -0.2042
     19 C         137.6059  141.0589  162.8015 C.ar    1  UNL1        0.0297
     20 C         138.3970  141.4194  164.0239 C.ar    1  UNL1        0.0039
     21 N         142.1743  141.9655  164.6923 N.pl3   1  UNL1       -0.2980
     22 H         142.2995  142.9307  164.5436 H       1  UNL1        0.1536
     23 C         142.7417  140.9768  163.7176 C.ar    1  UNL1        0.0504
     24 C         143.9087  140.1205  164.1112 C.ar    1  UNL1        0.0170
     25 C         144.4760  139.1317  163.1364 C.ar    1  UNL1        0.0318
     26 C         143.8765  138.9991  161.7679 C.ar    1  UNL1        0.1507
     27 F         144.4439  138.0103  160.7930 F       1  UNL1       -0.2033
     28 C         142.7095  139.8554  161.3741 C.ar    1  UNL1        0.0863
     29 CL        142.1099  139.7228  160.0055 Cl      1  UNL1       -0.0799
     30 C         142.1422  140.8442  162.3489 C.ar    1  UNL1        0.0283
@<TRIPOS>BOND
     1     1     2    1
     2     2     3    1
     3     2     4    1
     4     4     5   am
     5     5     6    2
     6     5     7    1
     7     7     8    1
     8     8     9   ar
     9     9    10   ar
    10    10    11   ar
    11    11    14    1
    12    14    15   ar
    13    15    16   ar
    14    16    17   ar
    15    17    18    1
    16    17    19   ar
    17    19    20   ar
    18    11    12   ar
    19    12    21    1
    20    21    23    1
    21    23    24   ar
    22    24    25   ar
    23    25    26   ar
    24    26    27    1
    25    26    28   ar
    26    28    29    1
    27    28    30   ar
    28     9     2    1
    29    20    14   ar
    30    30    23   ar
    31    12     8   ar
    32     4    13    1
    33    21    22    1
@<TRIPOS>MOLECULE
*****
 30 33 0 0 0
SMALL
GASTEIGER

@<TRIPOS>ATOM
      1 C         142.6081  139.4110  168.5297 C.3     1  UNL1        0.0274
      2 C         142.1645  140.7432  169.0576 C.3     1  UNL1        0.1074
      3 C         143.0654  140.3072  170.1749 C.3     1  UNL1        0.0274
      4 N         142.0338  141.9239  169.9734 N.am    1  UNL1       -0.2996
      5 C         141.1563  143.0780  169.5887 C.2     1  UNL1        0.2459
      6 O         141.0256  144.2588  170.5046 O.2     1  UNL1       -0.2730
      7 C         140.4095  143.0514  168.2881 C.3     1  UNL1        0.1935
      8 N         140.5402  141.8707  167.3723 N.ar    1  UNL1       -0.2935
      9 C         141.4177  140.7166  167.7570 C.ar    1  UNL1        0.1376
     10 N         141.3505  139.6970  166.6588 N.ar    1  UNL1       -0.2280
     11 C         140.4315  140.2210  165.5954 C.ar    1  UNL1        0.1125
     12 C         139.9307  141.5644  166.0364 C.ar    1  UNL1        0.1321
     13 H         142.5240  141.9414  170.8270 H       1  UNL1        0.1498
     14 C         140.0758  139.5239  164.3157 C.ar    1  UNL1        0.0205
     15 C         139.1869  138.3160  164.3417 C.ar    1  UNL1        0.0039
     16 C         138.8312  137.6189  163.0620 C.ar    1  UNL1        0.0297
     17 C         139.3643  138.1298  161.7564 C.ar    1  UNL1        0.1401
     18 F         139.0086  137.4327  160.4767 F       1  UNL1       -0.2042
     19 C         140.2532  139.3377  161.7304 C.ar    1  UNL1        0.0297
     20 C         140.6089  140.0348  163.0101 C.ar    1  UNL1        0.0039
     21 N         138.9862  142.4466  165.2750 N.pl3   1  UNL1       -0.2980
     22 H         138.0254  142.4402  165.4897 H       1  UNL1        0.1536
     23 C         139.5055  143.3386  164.1867 C.ar    1  UNL1        0.0504
     24 C         138.5573  143.9338  163.1884 C.ar    1  UNL1        0.0170
     25 C         139.0766  144.8258  162.1000 C.ar    1  UNL1        0.0318
     26 C         140.5442  145.1226  162.0098 C.ar    1  UNL1        0.1507
     27 F         141.0635  146.0146  160.9214 F       1  UNL1       -0.2033
     28 C         141.4925  144.5274  163.0081 C.ar    1  UNL1        0.0863
     29 CL        142.9600  144.8241  162.9180 Cl      1  UNL1       -0.0799
     30 C         140.9731  143.6354  164.0965 C.ar    1  UNL1        0.0283
@<TRIPOS>BOND
     1     1     2    1
     2     2     3    1
     3     2     4    1
     4     4     5   am
     5     5     6    2
     6     5     7    1
     7     7     8    1
     8     8     9   ar
     9     9    10   ar
    10    10    11   ar
    11    11    14    1
    12    14    15   ar
    13    15    16   ar
    14    16    17   ar
    15    17    18    1
    16    17    19   ar
    17    19    20   ar
    18    11    12   ar
    19    12    21    1
    20    21    23    1
    21    23    24   ar
    22    24    25   ar
    23    25    26   ar
    24    26    27    1
    25    26    28   ar
    26    28    29    1
    27    28    30   ar
    28     9     2    1
    29    20    14   ar
    30    30    23   ar
    31    12     8   ar
    32     4    13    1
    33    21    22    1
