@<TRIPOS>MOLECULE
*****
 24 28 0 0 0
SMALL
GASTEIGER

@<TRIPOS>ATOM
      1 O         142.0008  139.2700  166.2771 O.2     1  UNL1       -0.2701
      2 C         141.7765  140.1841  165.1092 C.2     1  UNL1        0.2474
      3 N         140.3832  140.4496  164.6213 N.am    1  UNL1       -0.3011
      4 H         140.1343  141.0309  163.8667 H       1  UNL1        0.1497
      5 C         142.9457  140.8326  164.4290 C.ar    1  UNL1        0.0741
      6 C         144.3257  140.2751  164.6154 C.ar    1  UNL1        0.0062
      7 C         145.4947  140.9236  163.9353 C.ar    1  UNL1        0.0034
      8 C         145.2838  142.1297  163.0687 C.ar    1  UNL1        0.0391
      9 C         143.9038  142.6872  162.8823 C.ar    1  UNL1        0.1645
     10 O         143.3915  143.8560  162.0939 O.2     1  UNL1       -0.4384
     11 C         141.9058  143.9298  162.2868 C.ar    1  UNL1        0.2052
     12 N         141.4999  142.8066  163.1944 N.ar    1  UNL1       -0.2119
     13 C         142.7348  142.0387  163.5624 C.ar    1  UNL1        0.1228
     14 C         140.9873  144.9480  161.6789 C.3     1  UNL1        0.0766
     15 C         140.0085  146.0735  161.8376 C.3     1  UNL1        0.0097
     16 C         140.3752  145.5861  160.4672 C.3     1  UNL1        0.0097
     17 C         138.6932  139.0629  166.1662 C.3     1  UNL1        0.0878
     18 C         138.5850  137.8140  165.6483 C.3     1  UNL1        0.0919
     19 N         138.4872  137.0448  165.3713 N.3     1  UNL1       -0.2713
     20 C         137.7188  137.4141  166.6054 C.3     1  UNL1        0.0722
     21 C         137.8385  138.7953  167.1782 C.3     1  UNL1        0.0191
     22 C         138.7266  139.8071  166.5169 C.3     1  UNL1        0.0221
     23 C         139.4951  139.4378  165.2827 C.3     1  UNL1        0.0191
     24 C         139.3754  138.0567  164.7099 C.3     1  UNL1        0.0722
@<TRIPOS>BOND
     1     1     2    2
     2     2     3   am
     3    17     3    1
     4    17    18    1
     5    18    19    1
     6    19    20    1
     7    20    21    1
     8    21    22    1
     9    22    23    1
    10    23    24    1
    11     2     5    1
    12     5     6   ar
    13     6     7   ar
    14     7     8   ar
    15     8     9   ar
    16     9    10   ar
    17    10    11   ar
    18    11    14    1
    19    14    15    1
    20    15    16    1
    21    11    12   ar
    22    12    13   ar
    23    22    17    1
    24    13     5   ar
    25    24    19    1
    26    13     9   ar
    27    16    14    1
    28     3     4    1
@<TRIPOS>MOLECULE
*****
 24 28 0 0 0
SMALL
GASTEIGER

@<TRIPOS>ATOM
      1 O         139.4645  141.5409  162.8028 O.2     1  UNL1       -0.2701
      2 C         139.7153  141.9506  164.2238 C.2     1  UNL1        0.2474
      3 N         140.3297  143.2861  164.5219 N.am    1  UNL1       -0.3011
      4 H         140.5325  143.6440  165.4164 H       1  UNL1        0.1497
      5 C         139.3516  141.0248  165.3466 C.ar    1  UNL1        0.0741
      6 C         138.2627  140.0104  165.1595 C.ar    1  UNL1        0.0062
      7 C         137.8991  139.0847  166.2823 C.ar    1  UNL1        0.0034
      8 C         138.6244  139.1734  167.5923 C.ar    1  UNL1        0.0391
      9 C         139.7133  140.1879  167.7795 C.ar    1  UNL1        0.1645
     10 O         140.5971  140.5077  168.9485 O.2     1  UNL1       -0.4384
     11 C         141.5070  141.6310  168.5481 C.ar    1  UNL1        0.2052
     12 N         141.1855  142.0055  167.1317 N.ar    1  UNL1       -0.2119
     13 C         140.0769  141.1136  166.6566 C.ar    1  UNL1        0.1228
     14 C         142.5545  142.2680  169.4125 C.3     1  UNL1        0.0766
     15 C         142.9265  143.1787  170.5448 C.3     1  UNL1        0.0097
     16 C         143.9966  142.4605  169.7774 C.3     1  UNL1        0.0097
     17 C         140.7771  144.5238  162.1909 C.3     1  UNL1        0.0878
     18 C         139.7083  145.3168  161.9287 C.3     1  UNL1        0.0919
     19 N         139.0825  145.8123  161.7268 N.3     1  UNL1       -0.2713
     20 C         140.2317  145.7599  160.7642 C.3     1  UNL1        0.0722
     21 C         141.4136  144.8829  161.0542 C.3     1  UNL1        0.0191
     22 C         141.4463  144.0583  162.3067 C.3     1  UNL1        0.0221
     23 C         140.2970  144.1107  163.2694 C.3     1  UNL1        0.0191
     24 C         139.1152  144.9877  162.9794 C.3     1  UNL1        0.0722
@<TRIPOS>BOND
     1     1     2    2
     2     2     3   am
     3    17     3    1
     4    17    18    1
     5    18    19    1
     6    19    20    1
     7    20    21    1
     8    21    22    1
     9    22    23    1
    10    23    24    1
    11     2     5    1
    12     5     6   ar
    13     6     7   ar
    14     7     8   ar
    15     8     9   ar
    16     9    10   ar
    17    10    11   ar
    18    11    14    1
    19    14    15    1
    20    15    16    1
    21    11    12   ar
    22    12    13   ar
    23    22    17    1
    24    13     5   ar
    25    24    19    1
    26    13     9   ar
    27    16    14    1
    28     3     4    1
@<TRIPOS>MOLECULE
*****
 24 28 0 0 0
SMALL
GASTEIGER

@<TRIPOS>ATOM
      1 O         143.3280  141.5292  167.3523 O.2     1  UNL1       -0.2701
      2 C         142.6789  141.9908  166.0813 C.2     1  UNL1        0.2474
      3 N         141.2207  142.3421  166.0685 N.am    1  UNL1       -0.3011
      4 H         140.7063  142.6530  165.2888 H       1  UNL1        0.1497
      5 C         143.4880  142.1013  164.8230 C.ar    1  UNL1        0.0741
      6 C         144.7955  141.3756  164.7060 C.ar    1  UNL1        0.0062
      7 C         145.6046  141.4860  163.4477 C.ar    1  UNL1        0.0034
      8 C         145.1061  142.3222  162.3065 C.ar    1  UNL1        0.0391
      9 C         143.7986  143.0479  162.4235 C.ar    1  UNL1        0.1645
     10 O         143.0569  143.9396  161.4724 O.2     1  UNL1       -0.4384
     11 C         141.7895  144.3803  162.1428 C.ar    1  UNL1        0.2052
     12 N         141.7478  143.7609  163.5083 N.ar    1  UNL1       -0.2119
     13 C         142.9896  142.9374  163.6818 C.ar    1  UNL1        0.1228
     14 C         140.7467  145.2821  161.5514 C.3     1  UNL1        0.0766
     15 C         140.0370  145.8352  160.3514 C.3     1  UNL1        0.0097
     16 C         139.6505  146.2907  161.7273 C.3     1  UNL1        0.0097
     17 C         140.2649  141.9735  168.5416 C.3     1  UNL1        0.0878
     18 C         139.8141  140.6971  168.6279 C.3     1  UNL1        0.0919
     19 N         139.5275  139.9318  168.7282 N.3     1  UNL1       -0.2713
     20 C         139.4286  140.8440  169.9148 C.3     1  UNL1        0.0722
     21 C         139.9271  142.2555  169.8194 C.3     1  UNL1        0.0191
     22 C         140.5244  142.7549  168.5373 C.3     1  UNL1        0.0221
     23 C         140.6233  141.8427  167.3506 C.3     1  UNL1        0.0191
     24 C         140.1249  140.4312  167.4460 C.3     1  UNL1        0.0722
@<TRIPOS>BOND
     1     1     2    2
     2     2     3   am
     3    17     3    1
     4    17    18    1
     5    18    19    1
     6    19    20    1
     7    20    21    1
     8    21    22    1
     9    22    23    1
    10    23    24    1
    11     2     5    1
    12     5     6   ar
    13     6     7   ar
    14     7     8   ar
    15     8     9   ar
    16     9    10   ar
    17    10    11   ar
    18    11    14    1
    19    14    15    1
    20    15    16    1
    21    11    12   ar
    22    12    13   ar
    23    22    17    1
    24    13     5   ar
    25    24    19    1
    26    13     9   ar
    27    16    14    1
    28     3     4    1
@<TRIPOS>MOLECULE
*****
 24 28 0 0 0
SMALL
GASTEIGER

@<TRIPOS>ATOM
      1 O         141.7396  139.8700  165.6791 O.2     1  UNL1       -0.2701
      2 C         140.8841  140.0487  166.8981 C.2     1  UNL1        0.2474
      3 N         139.4656  139.5611  166.8969 N.am    1  UNL1       -0.3011
      4 H         138.8279  139.6315  167.6437 H       1  UNL1        0.1497
      5 C         141.4470  140.7152  168.1184 C.ar    1  UNL1        0.0741
      6 C         141.2129  142.1787  168.3491 C.ar    1  UNL1        0.0062
      7 C         141.7758  142.8451  169.5693 C.ar    1  UNL1        0.0034
      8 C         142.5728  142.0479  170.5589 C.ar    1  UNL1        0.0391
      9 C         142.8069  140.5844  170.3282 C.ar    1  UNL1        0.1645
     10 O         143.5470  139.5489  171.1220 O.2     1  UNL1       -0.4384
     11 C         143.4415  138.2426  170.3924 C.ar    1  UNL1        0.2052
     12 N         142.6362  138.4707  169.1476 N.ar    1  UNL1       -0.2119
     13 C         142.2440  139.9180  169.1080 C.ar    1  UNL1        0.1228
     14 C         144.0369  136.9373  170.8306 C.3     1  UNL1        0.0766
     15 C         144.1047  135.8048  171.8118 C.3     1  UNL1        0.0097
     16 C         145.0001  135.8092  170.6084 C.3     1  UNL1        0.0097
     17 C         138.9754  138.4651  164.5044 C.3     1  UNL1        0.0878
     18 C         138.4251  139.4201  163.7138 C.3     1  UNL1        0.0919
     19 N         138.0886  139.9655  163.1968 N.3     1  UNL1       -0.2713
     20 C         138.3129  138.5836  162.6583 C.3     1  UNL1        0.0722
     21 C         138.9214  137.5276  163.5326 C.3     1  UNL1        0.0191
     22 C         139.3056  137.8533  164.9454 C.3     1  UNL1        0.0221
     23 C         139.0813  139.2353  165.4841 C.3     1  UNL1        0.0191
     24 C         138.4728  140.2914  164.6098 C.3     1  UNL1        0.0722
@<TRIPOS>BOND
     1     1     2    2
     2     2     3   am
     3    17     3    1
     4    17    18    1
     5    18    19    1
     6    19    20    1
     7    20    21    1
     8    21    22    1
     9    22    23    1
    10    23    24    1
    11     2     5    1
    12     5     6   ar
    13     6     7   ar
    14     7     8   ar
    15     8     9   ar
    16     9    10   ar
    17    10    11   ar
    18    11    14    1
    19    14    15    1
    20    15    16    1
    21    11    12   ar
    22    12    13   ar
    23    22    17    1
    24    13     5   ar
    25    24    19    1
    26    13     9   ar
    27    16    14    1
    28     3     4    1
@<TRIPOS>MOLECULE
*****
 24 28 0 0 0
SMALL
GASTEIGER

@<TRIPOS>ATOM
      1 O         141.1811  139.9189  164.8931 O.2     1  UNL1       -0.2701
      2 C         140.2125  140.0084  166.0350 C.2     1  UNL1        0.2474
      3 N         138.7938  139.5569  165.8523 N.am    1  UNL1       -0.3011
      4 H         138.0869  139.5756  166.5372 H       1  UNL1        0.1497
      5 C         140.6626  140.5495  167.3597 C.ar    1  UNL1        0.0741
      6 C         141.9319  141.3433  167.4534 C.ar    1  UNL1        0.0062
      7 C         142.3820  141.8843  168.7780 C.ar    1  UNL1        0.0034
      8 C         141.5628  141.6316  170.0089 C.ar    1  UNL1        0.0391
      9 C         140.2935  140.8378  169.9151 C.ar    1  UNL1        0.1645
     10 O         139.2858  140.4303  170.9488 O.2     1  UNL1       -0.4384
     11 C         138.2130  139.6374  170.2631 C.ar    1  UNL1        0.2052
     12 N         138.5576  139.5549  168.8055 N.ar    1  UNL1       -0.2119
     13 C         139.8435  140.2968  168.5905 C.ar    1  UNL1        0.1228
     14 C         137.0071  139.0332  170.9196 C.3     1  UNL1        0.0766
     15 C         135.6327  139.1832  171.5012 C.3     1  UNL1        0.0097
     16 C         136.2932  137.8367  171.4752 C.3     1  UNL1        0.0097
     17 C         138.5249  138.6911  163.3336 C.3     1  UNL1        0.0878
     18 C         137.9964  139.7022  162.5999 C.3     1  UNL1        0.0919
     19 N         137.6772  140.2854  162.1143 N.3     1  UNL1       -0.2713
     20 C         137.9956  138.9726  161.4623 C.3     1  UNL1        0.0722
     21 C         138.5800  137.8545  162.2737 C.3     1  UNL1        0.0191
     22 C         138.8461  138.0492  163.7370 C.3     1  UNL1        0.0221
     23 C         138.5277  139.3621  164.3890 C.3     1  UNL1        0.0191
     24 C         137.9433  140.4802  163.5776 C.3     1  UNL1        0.0722
@<TRIPOS>BOND
     1     1     2    2
     2     2     3   am
     3    17     3    1
     4    17    18    1
     5    18    19    1
     6    19    20    1
     7    20    21    1
     8    21    22    1
     9    22    23    1
    10    23    24    1
    11     2     5    1
    12     5     6   ar
    13     6     7   ar
    14     7     8   ar
    15     8     9   ar
    16     9    10   ar
    17    10    11   ar
    18    11    14    1
    19    14    15    1
    20    15    16    1
    21    11    12   ar
    22    12    13   ar
    23    22    17    1
    24    13     5   ar
    25    24    19    1
    26    13     9   ar
    27    16    14    1
    28     3     4    1
@<TRIPOS>MOLECULE
*****
 24 28 0 0 0
SMALL
GASTEIGER

@<TRIPOS>ATOM
      1 O         140.8776  139.9514  167.5999 O.2     1  UNL1       -0.2701
      2 C         140.7670  140.8620  166.4131 C.2     1  UNL1        0.2474
      3 N         141.3982  142.2222  166.4501 N.am    1  UNL1       -0.3011
      4 H         141.3809  142.8890  165.7259 H       1  UNL1        0.1497
      5 C         140.0252  140.4124  165.1893 C.ar    1  UNL1        0.0741
      6 C         139.4960  139.0114  165.1055 C.ar    1  UNL1        0.0062
      7 C         138.7543  138.5618  163.8817 C.ar    1  UNL1        0.0034
      8 C         138.5417  139.5133  162.7418 C.ar    1  UNL1        0.0391
      9 C         139.0708  140.9143  162.8256 C.ar    1  UNL1        0.1645
     10 O         139.0155  142.0672  161.8675 O.2     1  UNL1       -0.4384
     11 C         139.7230  143.2292  162.4992 C.ar    1  UNL1        0.2052
     12 N         140.2157  142.7946  163.8476 N.ar    1  UNL1       -0.2119
     13 C         139.8126  141.3639  164.0493 C.ar    1  UNL1        0.1228
     14 C         139.9058  144.5875  161.8894 C.3     1  UNL1        0.0766
     15 C         140.4056  145.4525  160.7706 C.3     1  UNL1        0.0097
     16 C         139.7226  146.0749  161.9520 C.3     1  UNL1        0.0097
     17 C         142.5798  142.5155  168.8341 C.3     1  UNL1        0.0878
     18 C         141.6717  143.0543  169.6854 C.3     1  UNL1        0.0919
     19 N         141.1558  143.3801  170.2383 N.3     1  UNL1       -0.2713
     20 C         142.5410  143.0652  170.7201 C.3     1  UNL1        0.0722
     21 C         143.5452  142.4693  169.7786 C.3     1  UNL1        0.0191
     22 C         143.1643  142.1883  168.3552 C.3     1  UNL1        0.0221
     23 C         141.7791  142.5032  167.8734 C.3     1  UNL1        0.0191
     24 C         140.7749  143.0991  168.8149 C.3     1  UNL1        0.0722
@<TRIPOS>BOND
     1     1     2    2
     2     2     3   am
     3    17     3    1
     4    17    18    1
     5    18    19    1
     6    19    20    1
     7    20    21    1
     8    21    22    1
     9    22    23    1
    10    23    24    1
    11     2     5    1
    12     5     6   ar
    13     6     7   ar
    14     7     8   ar
    15     8     9   ar
    16     9    10   ar
    17    10    11   ar
    18    11    14    1
    19    14    15    1
    20    15    16    1
    21    11    12   ar
    22    12    13   ar
    23    22    17    1
    24    13     5   ar
    25    24    19    1
    26    13     9   ar
    27    16    14    1
    28     3     4    1
@<TRIPOS>MOLECULE
*****
 24 28 0 0 0
SMALL
GASTEIGER

@<TRIPOS>ATOM
      1 O         143.4012  142.3488  167.5948 O.2     1  UNL1       -0.2701
      2 C         142.5883  142.1191  166.3553 C.2     1  UNL1        0.2474
      3 N         141.0907  142.1745  166.4195 N.am    1  UNL1       -0.3011
      4 H         140.4728  142.0382  165.6653 H       1  UNL1        0.1497
      5 C         143.2730  141.8340  165.0514 C.ar    1  UNL1        0.0741
      6 C         144.6223  142.4247  164.7680 C.ar    1  UNL1        0.0062
      7 C         145.3070  142.1396  163.4642 C.ar    1  UNL1        0.0034
      8 C         144.6423  141.2637  162.4439 C.ar    1  UNL1        0.0391
      9 C         143.2930  140.6730  162.7273 C.ar    1  UNL1        0.1645
     10 O         142.3988  139.7795  161.9198 O.2     1  UNL1       -0.4384
     11 C         141.1614  139.5125  162.7246 C.ar    1  UNL1        0.2052
     12 N         141.2909  140.2409  164.0294 N.ar    1  UNL1       -0.2119
     13 C         142.6084  140.9581  164.0311 C.ar    1  UNL1        0.1228
     14 C         139.9986  138.6657  162.2991 C.3     1  UNL1        0.0766
     15 C         138.8366  137.7842  162.6493 C.3     1  UNL1        0.0097
     16 C         139.1467  138.0806  161.2120 C.3     1  UNL1        0.0097
     17 C         140.3959  142.7097  168.9486 C.3     1  UNL1        0.0878
     18 C         140.1481  141.5302  169.5709 C.3     1  UNL1        0.0919
     19 N         139.9872  140.8403  169.9906 N.3     1  UNL1       -0.2713
     20 C         139.8464  142.1298  170.7438 C.3     1  UNL1        0.0722
     21 C         140.1204  143.4341  170.0557 C.3     1  UNL1        0.0191
     22 C         140.5351  143.4491  168.6143 C.3     1  UNL1        0.0221
     23 C         140.6759  142.1596  167.8609 C.3     1  UNL1        0.0191
     24 C         140.4020  140.8552  168.5491 C.3     1  UNL1        0.0722
@<TRIPOS>BOND
     1     1     2    2
     2     2     3   am
     3    17     3    1
     4    17    18    1
     5    18    19    1
     6    19    20    1
     7    20    21    1
     8    21    22    1
     9    22    23    1
    10    23    24    1
    11     2     5    1
    12     5     6   ar
    13     6     7   ar
    14     7     8   ar
    15     8     9   ar
    16     9    10   ar
    17    10    11   ar
    18    11    14    1
    19    14    15    1
    20    15    16    1
    21    11    12   ar
    22    12    13   ar
    23    22    17    1
    24    13     5   ar
    25    24    19    1
    26    13     9   ar
    27    16    14    1
    28     3     4    1
@<TRIPOS>MOLECULE
*****
 24 28 0 0 0
SMALL
GASTEIGER

@<TRIPOS>ATOM
      1 O         140.6593  142.8029  167.2697 O.2     1  UNL1       -0.2701
      2 C         139.9709  141.9429  166.2516 C.2     1  UNL1        0.2474
      3 N         139.7950  140.4751  166.5054 N.am    1  UNL1       -0.3011
      4 H         139.3591  139.8308  165.9020 H       1  UNL1        0.1497
      5 C         139.4584  142.5508  164.9796 C.ar    1  UNL1        0.0741
      6 C         138.6783  143.8313  165.0213 C.ar    1  UNL1        0.0062
      7 C         138.1659  144.4391  163.7494 C.ar    1  UNL1        0.0034
      8 C         138.4335  143.7664  162.4356 C.ar    1  UNL1        0.0391
      9 C         139.2137  142.4860  162.3939 C.ar    1  UNL1        0.1645
     10 O         139.6307  141.6013  161.2566 O.2     1  UNL1       -0.4384
     11 C         140.4009  140.4468  161.8256 C.ar    1  UNL1        0.2052
     12 N         140.4599  140.6178  163.3147 N.ar    1  UNL1       -0.2119
     13 C         139.7261  141.8782  163.6658 C.ar    1  UNL1        0.1228
     14 C         141.0058  139.3191  161.0430 C.3     1  UNL1        0.0766
     15 C         141.1204  138.5376  159.7678 C.3     1  UNL1        0.0097
     16 C         141.9390  138.1475  160.9626 C.3     1  UNL1        0.0097
     17 C         140.8761  139.9181  168.8901 C.3     1  UNL1        0.0878
     18 C         142.1696  139.5631  168.6882 C.3     1  UNL1        0.0919
     19 N         142.9591  139.3413  168.6156 N.3     1  UNL1       -0.2713
     20 C         142.3956  139.3632  170.0055 C.3     1  UNL1        0.0722
     21 C         140.9652  139.7557  170.2287 C.3     1  UNL1        0.0191
     22 C         140.0983  140.1264  169.0621 C.3     1  UNL1        0.0221
     23 C         140.6618  140.1045  167.6721 C.3     1  UNL1        0.0191
     24 C         142.0922  139.7119  167.4488 C.3     1  UNL1        0.0722
@<TRIPOS>BOND
     1     1     2    2
     2     2     3   am
     3    17     3    1
     4    17    18    1
     5    18    19    1
     6    19    20    1
     7    20    21    1
     8    21    22    1
     9    22    23    1
    10    23    24    1
    11     2     5    1
    12     5     6   ar
    13     6     7   ar
    14     7     8   ar
    15     8     9   ar
    16     9    10   ar
    17    10    11   ar
    18    11    14    1
    19    14    15    1
    20    15    16    1
    21    11    12   ar
    22    12    13   ar
    23    22    17    1
    24    13     5   ar
    25    24    19    1
    26    13     9   ar
    27    16    14    1
    28     3     4    1
@<TRIPOS>MOLECULE
*****
 24 28 0 0 0
SMALL
GASTEIGER

@<TRIPOS>ATOM
      1 O         141.9470  140.2246  165.5666 O.2     1  UNL1       -0.2701
      2 C         141.4175  141.1544  164.5154 C.2     1  UNL1        0.2474
      3 N         140.1107  140.8581  163.8413 N.am    1  UNL1       -0.3011
      4 H         139.6818  141.4040  163.1433 H       1  UNL1        0.1497
      5 C         142.1949  142.3806  164.1382 C.ar    1  UNL1        0.0741
      6 C         143.2394  142.9221  165.0686 C.ar    1  UNL1        0.0062
      7 C         144.0167  144.1483  164.6914 C.ar    1  UNL1        0.0034
      8 C         143.7495  144.8329  163.3837 C.ar    1  UNL1        0.0391
      9 C         142.7050  144.2914  162.4533 C.ar    1  UNL1        0.1645
     10 O         142.2250  144.7488  161.1079 O.2     1  UNL1       -0.4384
     11 C         141.1509  143.8053  160.6535 C.ar    1  UNL1        0.2052
     12 N         140.9672  142.7648  161.7182 N.ar    1  UNL1       -0.2119
     13 C         141.9277  143.0652  162.8305 C.ar    1  UNL1        0.1228
     14 C         140.3936  143.8880  159.3613 C.3     1  UNL1        0.0766
     15 C         140.1051  144.5896  158.0673 C.3     1  UNL1        0.0097
     16 C         139.3705  143.3295  158.4172 C.3     1  UNL1        0.0097
     17 C         139.1516  138.5816  164.8726 C.3     1  UNL1        0.0878
     18 C         138.4089  138.8986  165.9625 C.3     1  UNL1        0.0919
     19 N         137.9489  139.0418  166.6301 N.3     1  UNL1       -0.2713
     20 C         138.0999  137.6078  166.2167 C.3     1  UNL1        0.0722
     21 C         138.9213  137.2573  165.0115 C.3     1  UNL1        0.0191
     22 C         139.5915  138.3407  164.2197 C.3     1  UNL1        0.0221
     23 C         139.4405  139.7747  164.6331 C.3     1  UNL1        0.0191
     24 C         138.6191  140.1252  165.8383 C.3     1  UNL1        0.0722
@<TRIPOS>BOND
     1     1     2    2
     2     2     3   am
     3    17     3    1
     4    17    18    1
     5    18    19    1
     6    19    20    1
     7    20    21    1
     8    21    22    1
     9    22    23    1
    10    23    24    1
    11     2     5    1
    12     5     6   ar
    13     6     7   ar
    14     7     8   ar
    15     8     9   ar
    16     9    10   ar
    17    10    11   ar
    18    11    14    1
    19    14    15    1
    20    15    16    1
    21    11    12   ar
    22    12    13   ar
    23    22    17    1
    24    13     5   ar
    25    24    19    1
    26    13     9   ar
    27    16    14    1
    28     3     4    1
