@<TRIPOS>MOLECULE
*****
 38 42 0 0 0
SMALL
GASTEIGER

@<TRIPOS>ATOM
      1 O         139.4877  140.7135  161.3499 O.2     1  UNL1       -0.2751
      2 C         140.9485  140.6480  161.0156 C.2     1  UNL1        0.2227
      3 N         141.8879  141.6875  161.5512 N.am    1  UNL1       -0.2986
      4 H         142.8466  141.6445  161.3317 H       1  UNL1        0.1500
      5 C         141.4700  139.5428  160.1457 C.3     1  UNL1        0.0806
      6 C         141.1708  139.5407  158.6758 C.3     1  UNL1        0.0108
      7 C         141.6923  138.4356  157.8059 C.3     1  UNL1        0.0165
      8 C         142.5128  137.3325  158.4059 C.3     1  UNL1        0.0580
      9 C         142.8120  137.3346  159.8757 C.3     1  UNL1        0.0208
     10 C         142.2905  138.4398  160.7456 C.3     1  UNL1        0.0323
     11 C         142.5897  138.4418  162.2155 C.ar    1  UNL1       -0.0220
     12 C         141.6116  137.8406  163.1808 C.ar    1  UNL1       -0.0038
     13 C         141.9108  137.8427  164.6506 C.ar    1  UNL1        0.0064
     14 C         143.1880  138.4461  165.1552 C.ar    1  UNL1        0.0345
     15 BR        143.4872  138.4481  166.6251 Br      1  UNL1       -0.0490
     16 C         144.1661  139.0473  164.1899 C.ar    1  UNL1        0.0064
     17 C         143.8669  139.0452  162.7201 C.ar    1  UNL1       -0.0038
     18 N         143.0343  136.2273  157.5360 N.3     1  UNL1       -0.2697
     19 C         143.2553  136.4663  156.0716 C.3     1  UNL1        0.1046
     20 C         143.7767  135.3611  155.2017 C.3     1  UNL1        0.1595
     21 O         144.0772  134.0170  155.7961 O.3     1  UNL1       -0.3508
     22 C         143.8562  133.7782  157.2604 C.3     1  UNL1        0.1595
     23 C         143.3347  134.8833  158.1303 C.3     1  UNL1        0.1046
     24 C         141.3664  142.7927  162.4211 C.3     1  UNL1        0.1171
     25 C         141.4108  142.6562  163.9142 C.ar    1  UNL1       -0.0003
     26 C         142.7312  142.6099  164.6242 C.ar    1  UNL1       -0.0015
     27 C         142.7755  142.4734  166.1173 C.ar    1  UNL1        0.0111
     28 C         141.4993  142.3833  166.9004 C.ar    1  UNL1        0.0577
     29 CL        141.5437  142.2469  168.3936 Cl      1  UNL1       -0.0822
     30 C         140.1789  142.4297  166.1904 C.ar    1  UNL1        0.0111
     31 C         140.1346  142.5662  164.6973 C.ar    1  UNL1       -0.0015
     32 C         140.8007  144.0342  161.7979 C.ar    1  UNL1        0.0050
     33 C         140.2865  145.1427  162.6679 C.ar    1  UNL1        0.0185
     34 C         139.7207  146.3843  162.0446 C.ar    1  UNL1        0.1010
     35 N         139.6692  146.5174  160.5514 N.ar    1  UNL1       -0.2165
     36 C         140.1834  145.4089  159.6814 C.ar    1  UNL1        0.2221
     37 F         140.1318  145.5420  158.1883 F       1  UNL1       -0.1832
     38 C         140.7491  144.1674  160.3046 C.ar    1  UNL1        0.0473
@<TRIPOS>BOND
     1     1     2    2
     2     2     3   am
     3     3    24    1
     4    24    25    1
     5    25    26   ar
     6    26    27   ar
     7    27    28   ar
     8    28    29    1
     9    28    30   ar
    10    30    31   ar
    11    24    32    1
    12    32    33   ar
    13    33    34   ar
    14    34    35   ar
    15    35    36   ar
    16    36    37    1
    17    36    38   ar
    18     5     2    1
    19     5     6    1
    20     6     7    1
    21     7     8    1
    22     8    18    1
    23    18    19    1
    24    19    20    1
    25    20    21    1
    26    21    22    1
    27    22    23    1
    28     8     9    1
    29     9    10    1
    30    10    11    1
    31    11    12   ar
    32    12    13   ar
    33    13    14   ar
    34    14    15    1
    35    14    16   ar
    36    16    17   ar
    37    31    25   ar
    38    38    32   ar
    39    10     5    1
    40    17    11   ar
    41    23    18    1
    42     3     4    1
@<TRIPOS>MOLECULE
*****
 38 42 0 0 0
SMALL
GASTEIGER

@<TRIPOS>ATOM
      1 O         144.4347  141.2254  158.7391 O.2     1  UNL1       -0.2751
      2 C         143.1283  140.4978  158.8580 C.2     1  UNL1        0.2227
      3 N         141.9587  141.1604  159.5235 N.am    1  UNL1       -0.2986
      4 H         141.1014  140.6828  159.6016 H       1  UNL1        0.1500
      5 C         142.9917  139.1077  158.3113 C.3     1  UNL1        0.0806
      6 C         142.9745  138.8833  156.8283 C.3     1  UNL1        0.0108
      7 C         142.8379  137.4931  156.2816 C.3     1  UNL1        0.0165
      8 C         142.7183  136.3274  157.2180 C.3     1  UNL1        0.0580
      9 C         142.7354  136.5518  158.7010 C.3     1  UNL1        0.0208
     10 C         142.8721  137.9419  159.2477 C.3     1  UNL1        0.0323
     11 C         142.8892  138.1663  160.7307 C.ar    1  UNL1       -0.0220
     12 C         144.0989  138.7654  161.3847 C.ar    1  UNL1       -0.0038
     13 C         144.1159  138.9897  162.8677 C.ar    1  UNL1        0.0064
     14 C         142.9233  138.6150  163.6967 C.ar    1  UNL1        0.0345
     15 BR        142.9404  138.8394  165.1798 Br      1  UNL1       -0.0490
     16 C         141.7136  138.0160  163.0427 C.ar    1  UNL1        0.0064
     17 C         141.6966  137.7916  161.5598 C.ar    1  UNL1       -0.0038
     18 N         142.5816  134.9373  156.6714 N.3     1  UNL1       -0.2697
     19 C         141.6826  134.6774  155.4990 C.3     1  UNL1        0.1046
     20 C         141.5459  133.2872  154.9524 C.3     1  UNL1        0.1595
     21 O         142.3082  132.1570  155.5780 O.3     1  UNL1       -0.3508
     22 C         143.2072  132.4169  156.7503 C.3     1  UNL1        0.1595
     23 C         143.3439  133.8070  157.2970 C.3     1  UNL1        0.1046
     24 C         142.0954  142.5505  160.0702 C.3     1  UNL1        0.1171
     25 C         142.6388  142.7629  161.4522 C.ar    1  UNL1       -0.0003
     26 C         143.9282  143.5044  161.6453 C.ar    1  UNL1       -0.0015
     27 C         144.4715  143.7168  163.0272 C.ar    1  UNL1        0.0111
     28 C         143.7253  143.1876  164.2160 C.ar    1  UNL1        0.0577
     29 CL        144.2687  143.4000  165.5979 Cl      1  UNL1       -0.0822
     30 C         142.4359  142.4461  164.0228 C.ar    1  UNL1        0.0111
     31 C         141.8926  142.2337  162.6409 C.ar    1  UNL1       -0.0015
     32 C         141.6888  143.7282  159.2350 C.ar    1  UNL1        0.0050
     33 C         140.5858  144.6322  159.6998 C.ar    1  UNL1        0.0185
     34 C         140.1792  145.8100  158.8645 C.ar    1  UNL1        0.1010
     35 N         140.8756  146.0836  157.5645 N.ar    1  UNL1       -0.2165
     36 C         141.9786  145.1796  157.0997 C.ar    1  UNL1        0.2221
     37 F         142.6750  145.4532  155.7996 F       1  UNL1       -0.1832
     38 C         142.3852  144.0019  157.9349 C.ar    1  UNL1        0.0473
@<TRIPOS>BOND
     1     1     2    2
     2     2     3   am
     3     3    24    1
     4    24    25    1
     5    25    26   ar
     6    26    27   ar
     7    27    28   ar
     8    28    29    1
     9    28    30   ar
    10    30    31   ar
    11    24    32    1
    12    32    33   ar
    13    33    34   ar
    14    34    35   ar
    15    35    36   ar
    16    36    37    1
    17    36    38   ar
    18     5     2    1
    19     5     6    1
    20     6     7    1
    21     7     8    1
    22     8    18    1
    23    18    19    1
    24    19    20    1
    25    20    21    1
    26    21    22    1
    27    22    23    1
    28     8     9    1
    29     9    10    1
    30    10    11    1
    31    11    12   ar
    32    12    13   ar
    33    13    14   ar
    34    14    15    1
    35    14    16   ar
    36    16    17   ar
    37    31    25   ar
    38    38    32   ar
    39    10     5    1
    40    17    11   ar
    41    23    18    1
    42     3     4    1
@<TRIPOS>MOLECULE
*****
 38 42 0 0 0
SMALL
GASTEIGER

@<TRIPOS>ATOM
      1 O         139.8556  138.3691  161.2183 O.2     1  UNL1       -0.2751
      2 C         139.8185  139.8669  161.1445 C.2     1  UNL1        0.2227
      3 N         140.3071  140.6871  162.3014 N.am    1  UNL1       -0.2986
      4 H         140.2828  141.6701  162.2529 H       1  UNL1        0.1500
      5 C         139.2929  140.5444  159.9137 C.3     1  UNL1        0.0806
      6 C         139.3169  139.8289  158.5955 C.3     1  UNL1        0.0108
      7 C         138.7913  140.5063  157.3648 C.3     1  UNL1        0.0165
      8 C         138.2416  141.8993  157.4522 C.3     1  UNL1        0.0580
      9 C         138.2176  142.6147  158.7704 C.3     1  UNL1        0.0208
     10 C         138.7432  141.9373  160.0011 C.3     1  UNL1        0.0323
     11 C         138.7192  142.6528  161.3193 C.ar    1  UNL1       -0.0220
     12 C         139.7445  143.7055  161.6200 C.ar    1  UNL1       -0.0038
     13 C         139.7204  144.4209  162.9382 C.ar    1  UNL1        0.0064
     14 C         138.6711  144.0836  163.9556 C.ar    1  UNL1        0.0345
     15 BR        138.6470  144.7991  165.2738 Br      1  UNL1       -0.0490
     16 C         137.6458  143.0309  163.6548 C.ar    1  UNL1        0.0064
     17 C         137.6699  142.3154  162.3367 C.ar    1  UNL1       -0.0038
     18 N         137.7160  142.5768  156.2215 N.3     1  UNL1       -0.2697
     19 C         136.7641  141.8532  155.3157 C.3     1  UNL1        0.1046
     20 C         136.2384  142.5307  154.0849 C.3     1  UNL1        0.1595
     21 O         136.6647  143.9317  153.7600 O.3     1  UNL1       -0.3508
     22 C         137.6165  144.6552  154.6658 C.3     1  UNL1        0.1595
     23 C         138.1421  143.9777  155.8966 C.3     1  UNL1        0.1046
     24 C         140.8328  140.0097  163.5321 C.3     1  UNL1        0.1171
     25 C         139.8799  139.4061  164.5210 C.ar    1  UNL1       -0.0003
     26 C         139.5375  137.9480  164.4388 C.ar    1  UNL1       -0.0015
     27 C         138.5846  137.3446  165.4276 C.ar    1  UNL1        0.0111
     28 C         137.9741  138.1992  166.4986 C.ar    1  UNL1        0.0577
     29 CL        137.0212  137.5956  167.4874 Cl      1  UNL1       -0.0822
     30 C         138.3165  139.6572  166.5807 C.ar    1  UNL1        0.0111
     31 C         139.2694  140.2607  165.5919 C.ar    1  UNL1       -0.0015
     32 C         142.3113  139.9357  163.7740 C.ar    1  UNL1        0.0050
     33 C         142.8545  139.0097  164.8216 C.ar    1  UNL1        0.0185
     34 C         144.3330  138.9358  165.0635 C.ar    1  UNL1        0.1010
     35 N         145.2683  139.7879  164.2579 N.ar    1  UNL1       -0.2165
     36 C         144.7251  140.7139  163.2103 C.ar    1  UNL1        0.2221
     37 F         145.6604  141.5659  162.4046 F       1  UNL1       -0.1832
     38 C         143.2467  140.7878  162.9683 C.ar    1  UNL1        0.0473
@<TRIPOS>BOND
     1     1     2    2
     2     2     3   am
     3     3    24    1
     4    24    25    1
     5    25    26   ar
     6    26    27   ar
     7    27    28   ar
     8    28    29    1
     9    28    30   ar
    10    30    31   ar
    11    24    32    1
    12    32    33   ar
    13    33    34   ar
    14    34    35   ar
    15    35    36   ar
    16    36    37    1
    17    36    38   ar
    18     5     2    1
    19     5     6    1
    20     6     7    1
    21     7     8    1
    22     8    18    1
    23    18    19    1
    24    19    20    1
    25    20    21    1
    26    21    22    1
    27    22    23    1
    28     8     9    1
    29     9    10    1
    30    10    11    1
    31    11    12   ar
    32    12    13   ar
    33    13    14   ar
    34    14    15    1
    35    14    16   ar
    36    16    17   ar
    37    31    25   ar
    38    38    32   ar
    39    10     5    1
    40    17    11   ar
    41    23    18    1
    42     3     4    1
@<TRIPOS>MOLECULE
*****
 38 42 0 0 0
SMALL
GASTEIGER

@<TRIPOS>ATOM
      1 O         144.1232  141.3444  162.6105 O.2     1  UNL1       -0.2751
      2 C         142.7371  140.9896  163.0609 C.2     1  UNL1        0.2227
      3 N         141.6852  140.6436  162.0491 N.am    1  UNL1       -0.2986
      4 H         140.7755  140.4107  162.3448 H       1  UNL1        0.1500
      5 C         142.4029  140.9807  164.5232 C.3     1  UNL1        0.0806
      6 C         142.9100  139.8756  165.4017 C.3     1  UNL1        0.0108
      7 C         142.5758  139.8667  166.8640 C.3     1  UNL1        0.0165
      8 C         141.7346  140.9630  167.4478 C.3     1  UNL1        0.0580
      9 C         141.2277  142.0680  166.5693 C.3     1  UNL1        0.0208
     10 C         141.5618  142.0769  165.1070 C.3     1  UNL1        0.0323
     11 C         141.0548  143.1820  164.2285 C.ar    1  UNL1       -0.0220
     12 C         141.9523  144.3305  163.8746 C.ar    1  UNL1       -0.0038
     13 C         141.4453  145.4355  162.9961 C.ar    1  UNL1        0.0064
     14 C         140.0407  145.3921  162.4715 C.ar    1  UNL1        0.0345
     15 BR        139.5337  146.4972  161.5930 Br      1  UNL1       -0.0490
     16 C         139.1431  144.2436  162.8254 C.ar    1  UNL1        0.0064
     17 C         139.6502  143.1386  163.7039 C.ar    1  UNL1       -0.0038
     18 N         141.4005  140.9541  168.9100 N.3     1  UNL1       -0.2697
     19 C         140.3481  140.0220  169.4332 C.3     1  UNL1        0.1046
     20 C         140.0139  140.0131  170.8955 C.3     1  UNL1        0.1595
     21 O         140.7322  140.9364  171.8346 O.3     1  UNL1       -0.3508
     22 C         141.7845  141.8685  171.3114 C.3     1  UNL1        0.1595
     23 C         142.1186  141.8773  169.8491 C.3     1  UNL1        0.1046
     24 C         142.0194  140.6525  160.5868 C.3     1  UNL1        0.1171
     25 C         142.0442  141.9480  159.8310 C.ar    1  UNL1       -0.0003
     26 C         143.2782  142.3557  159.0820 C.ar    1  UNL1       -0.0015
     27 C         143.3030  143.6511  158.3263 C.ar    1  UNL1        0.0111
     28 C         142.0939  144.5388  158.3195 C.ar    1  UNL1        0.0577
     29 CL        142.1188  145.8343  157.5637 Cl      1  UNL1       -0.0822
     30 C         140.8600  144.1311  159.0685 C.ar    1  UNL1        0.0111
     31 C         140.8351  142.8357  159.8243 C.ar    1  UNL1       -0.0015
     32 C         142.3286  139.3659  159.8804 C.ar    1  UNL1        0.0050
     33 C         143.0037  138.2483  160.6187 C.ar    1  UNL1        0.0185
     34 C         143.3129  136.9617  159.9122 C.ar    1  UNL1        0.1010
     35 N         142.9471  136.7928  158.4673 N.ar    1  UNL1       -0.2165
     36 C         142.2721  137.9105  157.7290 C.ar    1  UNL1        0.2221
     37 F         141.9062  137.7416  156.2841 F       1  UNL1       -0.1832
     38 C         141.9628  139.1970  158.4354 C.ar    1  UNL1        0.0473
@<TRIPOS>BOND
     1     1     2    2
     2     2     3   am
     3     3    24    1
     4    24    25    1
     5    25    26   ar
     6    26    27   ar
     7    27    28   ar
     8    28    29    1
     9    28    30   ar
    10    30    31   ar
    11    24    32    1
    12    32    33   ar
    13    33    34   ar
    14    34    35   ar
    15    35    36   ar
    16    36    37    1
    17    36    38   ar
    18     5     2    1
    19     5     6    1
    20     6     7    1
    21     7     8    1
    22     8    18    1
    23    18    19    1
    24    19    20    1
    25    20    21    1
    26    21    22    1
    27    22    23    1
    28     8     9    1
    29     9    10    1
    30    10    11    1
    31    11    12   ar
    32    12    13   ar
    33    13    14   ar
    34    14    15    1
    35    14    16   ar
    36    16    17   ar
    37    31    25   ar
    38    38    32   ar
    39    10     5    1
    40    17    11   ar
    41    23    18    1
    42     3     4    1
@<TRIPOS>MOLECULE
*****
 38 42 0 0 0
SMALL
GASTEIGER

@<TRIPOS>ATOM
      1 O         140.6995  138.7628  160.9946 O.2     1  UNL1       -0.2751
      2 C         140.0846  140.1245  161.1290 C.2     1  UNL1        0.2227
      3 N         140.0400  140.7983  162.4684 N.am    1  UNL1       -0.2986
      4 H         139.6365  141.6920  162.5566 H       1  UNL1        0.1500
      5 C         139.5145  140.8122  159.9240 C.3     1  UNL1        0.0806
      6 C         138.5574  140.0839  159.0276 C.3     1  UNL1        0.0108
      7 C         137.9873  140.7716  157.8226 C.3     1  UNL1        0.0165
      8 C         138.3743  142.1877  157.5141 C.3     1  UNL1        0.0580
      9 C         139.3314  142.9159  158.4105 C.3     1  UNL1        0.0208
     10 C         139.9015  142.2282  159.6155 C.3     1  UNL1        0.0323
     11 C         140.8586  142.9565  160.5120 C.ar    1  UNL1       -0.0220
     12 C         142.3277  142.6634  160.4365 C.ar    1  UNL1       -0.0038
     13 C         143.2847  143.3917  161.3330 C.ar    1  UNL1        0.0064
     14 C         142.7726  144.4131  162.3048 C.ar    1  UNL1        0.0345
     15 BR        143.7297  145.1415  163.2013 Br      1  UNL1       -0.0490
     16 C         141.3035  144.7062  162.3802 C.ar    1  UNL1        0.0064
     17 C         140.3465  143.9779  161.4838 C.ar    1  UNL1       -0.0038
     18 N         137.8042  142.8754  156.3091 N.3     1  UNL1       -0.2697
     19 C         136.8103  142.1638  155.4396 C.3     1  UNL1        0.1046
     20 C         136.2402  142.8515  154.2346 C.3     1  UNL1        0.1595
     21 O         136.6640  144.2508  153.8991 O.3     1  UNL1       -0.3508
     22 C         137.6578  144.9623  154.7686 C.3     1  UNL1        0.1595
     23 C         138.2279  144.2746  155.9736 C.3     1  UNL1        0.1046
     24 C         140.6101  140.1106  163.6734 C.3     1  UNL1        0.1171
     25 C         139.7004  139.4026  164.6333 C.ar    1  UNL1       -0.0003
     26 C         139.0846  140.1541  165.7760 C.ar    1  UNL1       -0.0015
     27 C         138.1750  139.4460  166.7358 C.ar    1  UNL1        0.0111
     28 C         137.8813  137.9865  166.5529 C.ar    1  UNL1        0.0577
     29 CL        136.9716  137.2784  167.5127 Cl      1  UNL1       -0.0822
     30 C         138.4971  137.2350  165.4101 C.ar    1  UNL1        0.0111
     31 C         139.4067  137.9430  164.4503 C.ar    1  UNL1       -0.0015
     32 C         142.0897  140.1309  163.9185 C.ar    1  UNL1        0.0050
     33 C         142.9062  138.8950  163.6820 C.ar    1  UNL1        0.0185
     34 C         144.3859  138.9154  163.9272 C.ar    1  UNL1        0.1010
     35 N         145.0491  140.1716  164.4088 N.ar    1  UNL1       -0.2165
     36 C         144.2327  141.4075  164.6453 C.ar    1  UNL1        0.2221
     37 F         144.8959  142.6637  165.1269 F       1  UNL1       -0.1832
     38 C         142.7530  141.3872  164.4001 C.ar    1  UNL1        0.0473
@<TRIPOS>BOND
     1     1     2    2
     2     2     3   am
     3     3    24    1
     4    24    25    1
     5    25    26   ar
     6    26    27   ar
     7    27    28   ar
     8    28    29    1
     9    28    30   ar
    10    30    31   ar
    11    24    32    1
    12    32    33   ar
    13    33    34   ar
    14    34    35   ar
    15    35    36   ar
    16    36    37    1
    17    36    38   ar
    18     5     2    1
    19     5     6    1
    20     6     7    1
    21     7     8    1
    22     8    18    1
    23    18    19    1
    24    19    20    1
    25    20    21    1
    26    21    22    1
    27    22    23    1
    28     8     9    1
    29     9    10    1
    30    10    11    1
    31    11    12   ar
    32    12    13   ar
    33    13    14   ar
    34    14    15    1
    35    14    16   ar
    36    16    17   ar
    37    31    25   ar
    38    38    32   ar
    39    10     5    1
    40    17    11   ar
    41    23    18    1
    42     3     4    1
@<TRIPOS>MOLECULE
*****
 38 42 0 0 0
SMALL
GASTEIGER

@<TRIPOS>ATOM
      1 O         143.1323  141.3843  162.6484 O.2     1  UNL1       -0.2751
      2 C         142.0940  140.3743  162.2587 C.2     1  UNL1        0.2227
      3 N         140.8174  140.2714  163.0395 N.am    1  UNL1       -0.2986
      4 H         140.1360  139.6085  162.7837 H       1  UNL1        0.1500
      5 C         142.3324  139.4671  161.0881 C.3     1  UNL1        0.0806
      6 C         142.7849  138.0548  161.3137 C.3     1  UNL1        0.0108
      7 C         143.0233  137.1477  160.1431 C.3     1  UNL1        0.0165
      8 C         142.8091  137.6528  158.7470 C.3     1  UNL1        0.0580
      9 C         142.3566  139.0650  158.5215 C.3     1  UNL1        0.0208
     10 C         142.1183  139.9721  159.6920 C.3     1  UNL1        0.0323
     11 C         141.6657  141.3844  159.4665 C.ar    1  UNL1       -0.0220
     12 C         140.2136  141.6783  159.2320 C.ar    1  UNL1       -0.0038
     13 C         139.7612  143.0905  159.0065 C.ar    1  UNL1        0.0064
     14 C         140.7608  144.2088  159.0154 C.ar    1  UNL1        0.0345
     15 BR        140.3083  145.6211  158.7898 Br      1  UNL1       -0.0490
     16 C         142.2129  143.9149  159.2498 C.ar    1  UNL1        0.0064
     17 C         142.6654  142.5027  159.4754 C.ar    1  UNL1       -0.0038
     18 N         143.0475  136.7456  157.5764 N.3     1  UNL1       -0.2697
     19 C         143.2859  135.2814  157.7986 C.3     1  UNL1        0.1046
     20 C         143.5242  134.3742  156.6280 C.3     1  UNL1        0.1595
     21 O         143.5243  134.9313  155.2353 O.3     1  UNL1       -0.3508
     22 C         143.2859  136.3954  155.0131 C.3     1  UNL1        0.1595
     23 C         143.0475  137.3026  156.1837 C.3     1  UNL1        0.1046
     24 C         140.5791  141.1786  164.2100 C.3     1  UNL1        0.1171
     25 C         140.9124  140.7160  165.5975 C.ar    1  UNL1       -0.0003
     26 C         139.8179  140.2815  166.5265 C.ar    1  UNL1       -0.0015
     27 C         140.1513  139.8190  167.9138 C.ar    1  UNL1        0.0111
     28 C         141.5793  139.7909  168.3722 C.ar    1  UNL1        0.0577
     29 CL        141.9126  139.3283  169.7597 Cl      1  UNL1       -0.0822
     30 C         142.6738  140.2254  167.4432 C.ar    1  UNL1        0.0111
     31 C         142.3404  140.6880  166.0559 C.ar    1  UNL1       -0.0015
     32 C         140.0073  142.5483  163.9932 C.ar    1  UNL1        0.0050
     33 C         139.9493  143.1265  162.6104 C.ar    1  UNL1        0.0185
     34 C         139.3776  144.4963  162.3936 C.ar    1  UNL1        0.1010
     35 N         138.8639  145.2877  163.5596 N.ar    1  UNL1       -0.2165
     36 C         138.9218  144.7095  164.9424 C.ar    1  UNL1        0.2221
     37 F         138.4081  145.5009  166.1085 F       1  UNL1       -0.1832
     38 C         139.4936  143.3398  165.1593 C.ar    1  UNL1        0.0473
@<TRIPOS>BOND
     1     1     2    2
     2     2     3   am
     3     3    24    1
     4    24    25    1
     5    25    26   ar
     6    26    27   ar
     7    27    28   ar
     8    28    29    1
     9    28    30   ar
    10    30    31   ar
    11    24    32    1
    12    32    33   ar
    13    33    34   ar
    14    34    35   ar
    15    35    36   ar
    16    36    37    1
    17    36    38   ar
    18     5     2    1
    19     5     6    1
    20     6     7    1
    21     7     8    1
    22     8    18    1
    23    18    19    1
    24    19    20    1
    25    20    21    1
    26    21    22    1
    27    22    23    1
    28     8     9    1
    29     9    10    1
    30    10    11    1
    31    11    12   ar
    32    12    13   ar
    33    13    14   ar
    34    14    15    1
    35    14    16   ar
    36    16    17   ar
    37    31    25   ar
    38    38    32   ar
    39    10     5    1
    40    17    11   ar
    41    23    18    1
    42     3     4    1
@<TRIPOS>MOLECULE
*****
 38 42 0 0 0
SMALL
GASTEIGER

@<TRIPOS>ATOM
      1 O         144.4786  140.8302  162.3762 O.2     1  UNL1       -0.2751
      2 C         143.1554  140.1658  162.1356 C.2     1  UNL1        0.2227
      3 N         142.0215  140.3840  163.0930 N.am    1  UNL1       -0.2986
      4 H         141.1530  139.9480  162.9350 H       1  UNL1        0.1500
      5 C         142.9661  139.2833  160.9375 C.3     1  UNL1        0.0806
      6 C         143.4257  137.8560  160.9773 C.3     1  UNL1        0.0108
      7 C         143.2364  136.9735  159.7792 C.3     1  UNL1        0.0165
      8 C         142.5876  137.5184  158.5413 C.3     1  UNL1        0.0580
      9 C         142.1281  138.9457  158.5016 C.3     1  UNL1        0.0208
     10 C         142.3174  139.8281  159.6997 C.3     1  UNL1        0.0323
     11 C         141.8578  141.2555  159.6599 C.ar    1  UNL1       -0.0220
     12 C         140.4518  141.6019  160.0508 C.ar    1  UNL1       -0.0038
     13 C         139.9923  143.0292  160.0110 C.ar    1  UNL1        0.0064
     14 C         140.9389  144.1101  159.5802 C.ar    1  UNL1        0.0345
     15 BR        140.4794  145.5375  159.5404 Br      1  UNL1       -0.0490
     16 C         142.3450  143.7637  159.1893 C.ar    1  UNL1        0.0064
     17 C         142.8045  142.3364  159.2291 C.ar    1  UNL1       -0.0038
     18 N         142.3984  136.6359  157.3433 N.3     1  UNL1       -0.2697
     19 C         141.2961  136.9227  156.3671 C.3     1  UNL1        0.1046
     20 C         141.1069  136.0402  155.1690 C.3     1  UNL1        0.1595
     21 O         142.0199  134.8709  154.9471 O.3     1  UNL1       -0.3508
     22 C         143.1221  134.5841  155.9233 C.3     1  UNL1        0.1595
     23 C         143.3113  135.4666  157.1213 C.3     1  UNL1        0.1046
     24 C         142.2107  141.2665  164.2911 C.3     1  UNL1        0.1171
     25 C         142.3303  140.6601  165.6578 C.ar    1  UNL1       -0.0003
     26 C         142.9989  139.3287  165.8318 C.ar    1  UNL1       -0.0015
     27 C         143.1185  138.7223  167.1985 C.ar    1  UNL1        0.0111
     28 C         142.5694  139.4474  168.3913 C.ar    1  UNL1        0.0577
     29 CL        142.6890  138.8410  169.7581 Cl      1  UNL1       -0.0822
     30 C         141.9008  140.7788  168.2174 C.ar    1  UNL1        0.0111
     31 C         141.7813  141.3852  166.8507 C.ar    1  UNL1       -0.0015
     32 C         142.2804  142.7553  164.1224 C.ar    1  UNL1        0.0050
     33 C         143.5462  143.4892  164.4528 C.ar    1  UNL1        0.0185
     34 C         143.6158  144.9781  164.2841 C.ar    1  UNL1        0.1010
     35 N         142.4197  145.7331  163.7851 N.ar    1  UNL1       -0.2165
     36 C         141.1538  144.9992  163.4547 C.ar    1  UNL1        0.2221
     37 F         139.9576  145.7542  162.9556 F       1  UNL1       -0.1832
     38 C         141.0842  143.5104  163.6233 C.ar    1  UNL1        0.0473
@<TRIPOS>BOND
     1     1     2    2
     2     2     3   am
     3     3    24    1
     4    24    25    1
     5    25    26   ar
     6    26    27   ar
     7    27    28   ar
     8    28    29    1
     9    28    30   ar
    10    30    31   ar
    11    24    32    1
    12    32    33   ar
    13    33    34   ar
    14    34    35   ar
    15    35    36   ar
    16    36    37    1
    17    36    38   ar
    18     5     2    1
    19     5     6    1
    20     6     7    1
    21     7     8    1
    22     8    18    1
    23    18    19    1
    24    19    20    1
    25    20    21    1
    26    21    22    1
    27    22    23    1
    28     8     9    1
    29     9    10    1
    30    10    11    1
    31    11    12   ar
    32    12    13   ar
    33    13    14   ar
    34    14    15    1
    35    14    16   ar
    36    16    17   ar
    37    31    25   ar
    38    38    32   ar
    39    10     5    1
    40    17    11   ar
    41    23    18    1
    42     3     4    1
@<TRIPOS>MOLECULE
*****
 38 42 0 0 0
SMALL
GASTEIGER

@<TRIPOS>ATOM
      1 O         143.6568  141.7296  160.8647 O.2     1  UNL1       -0.2751
      2 C         142.4425  140.9186  160.5211 C.2     1  UNL1        0.2227
      3 N         141.1380  141.1936  161.2085 N.am    1  UNL1       -0.2986
      4 H         140.3410  140.6613  160.9830 H       1  UNL1        0.1500
      5 C         142.5329  139.8328  159.4902 C.3     1  UNL1        0.0806
      6 C         143.2090  140.0990  158.1779 C.3     1  UNL1        0.0108
      7 C         143.2993  139.0131  157.1470 C.3     1  UNL1        0.0165
      8 C         142.7136  137.6611  157.4284 C.3     1  UNL1        0.0580
      9 C         142.0376  137.3950  158.7407 C.3     1  UNL1        0.0208
     10 C         141.9472  138.4809  159.7716 C.3     1  UNL1        0.0323
     11 C         141.2711  138.2147  161.0839 C.ar    1  UNL1       -0.0220
     12 C         142.0926  137.9480  162.3103 C.ar    1  UNL1       -0.0038
     13 C         141.4165  137.6819  163.6225 C.ar    1  UNL1        0.0064
     14 C         139.9190  137.6825  163.7084 C.ar    1  UNL1        0.0345
     15 BR        139.2429  137.4163  165.0208 Br      1  UNL1       -0.0490
     16 C         139.0975  137.9492  162.4821 C.ar    1  UNL1        0.0064
     17 C         139.7736  138.2153  161.1698 C.ar    1  UNL1       -0.0038
     18 N         142.8039  136.5753  156.3975 N.3     1  UNL1       -0.2697
     19 C         142.3252  136.8277  154.9984 C.3     1  UNL1        0.1046
     20 C         142.4155  135.7418  153.9675 C.3     1  UNL1        0.1595
     21 O         142.9846  134.4036  154.3356 O.3     1  UNL1       -0.3508
     22 C         143.4633  134.1513  155.7346 C.3     1  UNL1        0.1595
     23 C         143.3730  135.2372  156.7655 C.3     1  UNL1        0.1046
     24 C         141.0476  142.2794  162.2394 C.3     1  UNL1        0.1171
     25 C         141.4806  142.0118  163.6505 C.ar    1  UNL1       -0.0003
     26 C         140.6127  141.1922  164.5587 C.ar    1  UNL1       -0.0015
     27 C         141.0457  140.9246  165.9696 C.ar    1  UNL1        0.0111
     28 C         142.3466  141.4767  166.4724 C.ar    1  UNL1        0.0577
     29 CL        142.7796  141.2091  167.8835 Cl      1  UNL1       -0.0822
     30 C         143.2145  142.2963  165.5642 C.ar    1  UNL1        0.0111
     31 C         142.7815  142.5639  164.1533 C.ar    1  UNL1       -0.0015
     32 C         140.5244  143.6328  161.8594 C.ar    1  UNL1        0.0050
     33 C         139.7947  144.4660  162.8710 C.ar    1  UNL1        0.0185
     34 C         139.2714  145.8195  162.4908 C.ar    1  UNL1        0.1010
     35 N         139.4778  146.3396  161.0992 N.ar    1  UNL1       -0.2165
     36 C         140.2074  145.5064  160.0875 C.ar    1  UNL1        0.2221
     37 F         140.4137  146.0265  158.6959 F       1  UNL1       -0.1832
     38 C         140.7307  144.1530  160.4676 C.ar    1  UNL1        0.0473
@<TRIPOS>BOND
     1     1     2    2
     2     2     3   am
     3     3    24    1
     4    24    25    1
     5    25    26   ar
     6    26    27   ar
     7    27    28   ar
     8    28    29    1
     9    28    30   ar
    10    30    31   ar
    11    24    32    1
    12    32    33   ar
    13    33    34   ar
    14    34    35   ar
    15    35    36   ar
    16    36    37    1
    17    36    38   ar
    18     5     2    1
    19     5     6    1
    20     6     7    1
    21     7     8    1
    22     8    18    1
    23    18    19    1
    24    19    20    1
    25    20    21    1
    26    21    22    1
    27    22    23    1
    28     8     9    1
    29     9    10    1
    30    10    11    1
    31    11    12   ar
    32    12    13   ar
    33    13    14   ar
    34    14    15    1
    35    14    16   ar
    36    16    17   ar
    37    31    25   ar
    38    38    32   ar
    39    10     5    1
    40    17    11   ar
    41    23    18    1
    42     3     4    1
@<TRIPOS>MOLECULE
*****
 38 42 0 0 0
SMALL
GASTEIGER

@<TRIPOS>ATOM
      1 O         143.7555  138.7643  159.8595 O.2     1  UNL1       -0.2751
      2 C         142.2706  138.6282  160.0222 C.2     1  UNL1        0.2227
      3 N         141.4060  138.3639  158.8253 N.am    1  UNL1       -0.2986
      4 H         140.4314  138.2745  158.9321 H       1  UNL1        0.1500
      5 C         141.6502  138.7566  161.3819 C.3     1  UNL1        0.0806
      6 C         141.5086  137.5477  162.2587 C.3     1  UNL1        0.0108
      7 C         140.8882  137.6760  163.6184 C.3     1  UNL1        0.0165
      8 C         140.4096  139.0132  164.1012 C.3     1  UNL1        0.0580
      9 C         140.5512  140.2219  163.2244 C.3     1  UNL1        0.0208
     10 C         141.1716  140.0936  161.8647 C.3     1  UNL1        0.0323
     11 C         141.3132  141.3024  160.9879 C.ar    1  UNL1       -0.0220
     12 C         142.6275  142.0209  160.9077 C.ar    1  UNL1       -0.0038
     13 C         142.7691  143.2297  160.0309 C.ar    1  UNL1        0.0064
     14 C         141.5964  143.7199  159.2343 C.ar    1  UNL1        0.0345
     15 BR        141.7381  144.9287  158.3574 Br      1  UNL1       -0.0490
     16 C         140.2822  143.0014  159.3144 C.ar    1  UNL1        0.0064
     17 C         140.1406  141.7926  160.1913 C.ar    1  UNL1       -0.0038
     18 N         139.7892  139.1415  165.4609 N.3     1  UNL1       -0.2697
     19 C         138.4516  138.5211  165.7366 C.3     1  UNL1        0.1046
     20 C         137.8313  138.6494  167.0963 C.3     1  UNL1        0.1595
     21 O         138.5486  139.3981  168.1803 O.3     1  UNL1       -0.3508
     22 C         139.8861  140.0184  167.9046 C.3     1  UNL1        0.1595
     23 C         140.5065  139.8901  166.5449 C.3     1  UNL1        0.1046
     24 C         142.0263  138.2355  157.4656 C.3     1  UNL1        0.1171
     25 C         142.6289  139.4371  156.7997 C.ar    1  UNL1       -0.0003
     26 C         141.9155  140.7558  156.8442 C.ar    1  UNL1       -0.0015
     27 C         142.5180  141.9572  156.1783 C.ar    1  UNL1        0.0111
     28 C         143.8339  141.8400  155.4680 C.ar    1  UNL1        0.0577
     29 CL        144.4365  143.0415  154.8021 Cl      1  UNL1       -0.0822
     30 C         144.5473  140.5213  155.4236 C.ar    1  UNL1        0.0111
     31 C         143.9448  139.3198  156.0894 C.ar    1  UNL1       -0.0015
     32 C         142.0441  136.9058  156.7718 C.ar    1  UNL1        0.0050
     33 C         141.0784  136.6278  155.6583 C.ar    1  UNL1        0.0185
     34 C         141.0963  135.2980  154.9645 C.ar    1  UNL1        0.1010
     35 N         142.0798  134.2462  155.3843 N.ar    1  UNL1       -0.2165
     36 C         143.0456  134.5242  156.4978 C.ar    1  UNL1        0.2221
     37 F         144.0291  133.4724  156.9176 F       1  UNL1       -0.1832
     38 C         143.0277  135.8539  157.1916 C.ar    1  UNL1        0.0473
@<TRIPOS>BOND
     1     1     2    2
     2     2     3   am
     3     3    24    1
     4    24    25    1
     5    25    26   ar
     6    26    27   ar
     7    27    28   ar
     8    28    29    1
     9    28    30   ar
    10    30    31   ar
    11    24    32    1
    12    32    33   ar
    13    33    34   ar
    14    34    35   ar
    15    35    36   ar
    16    36    37    1
    17    36    38   ar
    18     5     2    1
    19     5     6    1
    20     6     7    1
    21     7     8    1
    22     8    18    1
    23    18    19    1
    24    19    20    1
    25    20    21    1
    26    21    22    1
    27    22    23    1
    28     8     9    1
    29     9    10    1
    30    10    11    1
    31    11    12   ar
    32    12    13   ar
    33    13    14   ar
    34    14    15    1
    35    14    16   ar
    36    16    17   ar
    37    31    25   ar
    38    38    32   ar
    39    10     5    1
    40    17    11   ar
    41    23    18    1
    42     3     4    1
