@<TRIPOS>MOLECULE
*****
 37 40 0 0 0
SMALL
GASTEIGER

@<TRIPOS>ATOM
      1 N         139.3307  142.8084  158.6513 N.am    1  UNL1       -0.2644
      2 C         138.9325  142.6874  157.2101 C.2     1  UNL1        0.2494
      3 O         138.2764  141.4982  156.5736 O.2     1  UNL1       -0.2699
      4 C         139.3055  143.9645  156.5173 C.ar    1  UNL1        0.0516
      5 C         139.1539  144.4161  155.0950 C.ar    1  UNL1        0.0043
      6 C         139.6311  145.7779  154.6856 C.ar    1  UNL1        0.0001
      7 C         140.2599  146.6882  155.6985 C.ar    1  UNL1       -0.0003
      8 C         140.4115  146.2366  157.1209 C.ar    1  UNL1       -0.0021
      9 C         139.9343  144.8748  157.5303 C.ar    1  UNL1        0.0089
     10 C         139.9498  144.1603  158.8491 C.3     1  UNL1        0.1752
     11 C         138.6889  139.2338  162.2620 C.2     1  UNL1        0.4047
     12 O         137.7181  138.1116  162.0423 O.2     1  UNL1       -0.2262
     13 N         138.8769  140.2808  161.2044 N.am    1  UNL1       -0.2425
     14 C         139.7257  141.5099  161.0679 C.3     1  UNL1        0.1183
     15 C         139.1427  141.7614  159.7088 C.3     1  UNL1        0.1161
     16 C         138.2938  140.5322  159.8455 C.3     1  UNL1        0.1183
     17 O         139.4717  139.3089  163.5393 O.3     1  UNL1       -0.4418
     18 C         139.4527  137.6813  164.8996 C.3     1  UNL1        0.0437
     19 C         138.7974  139.0296  164.8498 C.3     1  UNL1        0.1378
     20 C         138.1421  140.3780  164.7999 C.3     1  UNL1        0.0437
     21 C         138.1231  138.7504  166.1602 C.3     1  UNL1        0.0437
     22 C         140.4898  144.7025  160.1392 C.2     1  UNL1        0.2451
     23 O         141.9713  144.8176  160.3429 O.2     1  UNL1       -0.2729
     24 N         139.5480  145.1297  161.2259 N.am    1  UNL1       -0.2988
     25 H         138.5755  145.0542  161.0922 H       1  UNL1        0.1498
     26 C         140.0879  145.6719  162.5160 C.3     1  UNL1        0.1164
     27 C         140.3602  144.7450  163.6635 C.ar    1  UNL1       -0.0024
     28 C         139.3154  144.5302  164.7182 C.ar    1  UNL1        0.0005
     29 C         139.5877  143.6032  165.8657 C.ar    1  UNL1        0.0369
     30 C         140.9046  142.8912  165.9586 C.ar    1  UNL1        0.1468
     31 C         141.9493  143.1061  164.9038 C.ar    1  UNL1        0.0369
     32 C         141.6771  144.0330  163.7563 C.ar    1  UNL1        0.0005
     33 O         141.1769  141.9644  167.1060 O.3     1  UNL1       -0.4045
     34 C         140.4273  142.1265  168.3952 C.3     1  UNL1        0.5753
     35 F         139.6778  142.2886  169.6843 F       1  UNL1       -0.1328
     36 F         141.2996  143.2923  168.7557 F       1  UNL1       -0.1328
     37 F         139.5551  140.9606  168.0346 F       1  UNL1       -0.1328
@<TRIPOS>BOND
     1    18    19    1
     2    19    20    1
     3    19    21    1
     4    19    17    1
     5    17    11    1
     6    11    12    2
     7    11    13   am
     8    13    14    1
     9    14    15    1
    10    15     1    1
    11     1     2   am
    12     2     3    2
    13     2     4    1
    14     4     5   ar
    15     5     6   ar
    16     6     7   ar
    17     7     8   ar
    18     8     9   ar
    19     9    10    1
    20    10    22    1
    21    22    23    2
    22    22    24   am
    23    24    26    1
    24    26    27    1
    25    27    28   ar
    26    28    29   ar
    27    29    30   ar
    28    30    33    1
    29    33    34    1
    30    34    35    1
    31    34    36    1
    32    34    37    1
    33    30    31   ar
    34    31    32   ar
    35    15    16    1
    36    16    13    1
    37    10     1    1
    38    32    27   ar
    39     9     4   ar
    40    24    25    1
@<TRIPOS>MOLECULE
*****
 37 40 0 0 0
SMALL
GASTEIGER

@<TRIPOS>ATOM
      1 N         140.5200  138.3835  157.8298 N.am    1  UNL1       -0.2644
      2 C         139.9518  137.7614  156.5888 C.2     1  UNL1        0.2494
      3 O         138.5731  137.9855  156.0420 O.2     1  UNL1       -0.2699
      4 C         141.0043  136.8757  155.9905 C.ar    1  UNL1        0.0516
      5 C         141.0104  136.0109  154.7650 C.ar    1  UNL1        0.0043
      6 C         142.2352  135.2208  154.4107 C.ar    1  UNL1        0.0001
      7 C         143.4540  135.2956  155.2820 C.ar    1  UNL1       -0.0003
      8 C         143.4479  136.1604  156.5075 C.ar    1  UNL1       -0.0021
      9 C         142.2231  136.9505  156.8618 C.ar    1  UNL1        0.0089
     10 C         141.9237  137.8823  157.9985 C.3     1  UNL1        0.1752
     11 C         138.0936  141.6457  160.9439 C.2     1  UNL1        0.4047
     12 O         138.2272  143.1246  160.7322 O.2     1  UNL1       -0.2262
     13 N         138.8043  140.6902  160.0318 N.am    1  UNL1       -0.2425
     14 C         138.9076  139.1971  159.9322 C.3     1  UNL1        0.1183
     15 C         139.8094  139.3390  158.7419 C.3     1  UNL1        0.1161
     16 C         139.7060  140.8321  158.8416 C.3     1  UNL1        0.1183
     17 O         137.2494  141.1223  162.0679 O.3     1  UNL1       -0.4418
     18 C         138.1312  139.5897  163.2399 C.3     1  UNL1        0.0437
     19 C         137.8144  141.0400  163.4549 C.3     1  UNL1        0.1378
     20 C         137.4976  142.4903  163.6700 C.3     1  UNL1        0.0437
     21 C         138.3794  140.9578  164.8420 C.3     1  UNL1        0.0437
     22 C         142.8632  138.2487  159.1090 C.2     1  UNL1        0.2451
     23 O         143.9262  139.2822  158.8818 O.2     1  UNL1       -0.2729
     24 N         142.7397  137.5813  160.4467 N.am    1  UNL1       -0.2988
     25 H         142.0420  136.9029  160.5959 H       1  UNL1        0.1498
     26 C         143.6792  137.9477  161.5572 C.3     1  UNL1        0.1164
     27 C         143.1371  138.3315  162.9021 C.ar    1  UNL1       -0.0024
     28 C         141.8111  137.7975  163.3565 C.ar    1  UNL1        0.0005
     29 C         141.2690  138.1813  164.7015 C.ar    1  UNL1        0.0369
     30 C         142.0529  139.0991  165.5920 C.ar    1  UNL1        0.1468
     31 C         143.3789  139.6331  165.1376 C.ar    1  UNL1        0.0369
     32 C         143.9211  139.2493  163.7927 C.ar    1  UNL1        0.0005
     33 O         141.5108  139.4829  166.9369 O.3     1  UNL1       -0.4045
     34 C         142.4174  140.0927  167.9647 C.3     1  UNL1        0.5753
     35 F         143.3240  140.7024  168.9925 F       1  UNL1       -0.1328
     36 F         142.8925  138.7251  168.3571 F       1  UNL1       -0.1328
     37 F         141.9424  141.4603  167.5723 F       1  UNL1       -0.1328
@<TRIPOS>BOND
     1    18    19    1
     2    19    20    1
     3    19    21    1
     4    19    17    1
     5    17    11    1
     6    11    12    2
     7    11    13   am
     8    13    14    1
     9    14    15    1
    10    15     1    1
    11     1     2   am
    12     2     3    2
    13     2     4    1
    14     4     5   ar
    15     5     6   ar
    16     6     7   ar
    17     7     8   ar
    18     8     9   ar
    19     9    10    1
    20    10    22    1
    21    22    23    2
    22    22    24   am
    23    24    26    1
    24    26    27    1
    25    27    28   ar
    26    28    29   ar
    27    29    30   ar
    28    30    33    1
    29    33    34    1
    30    34    35    1
    31    34    36    1
    32    34    37    1
    33    30    31   ar
    34    31    32   ar
    35    15    16    1
    36    16    13    1
    37    10     1    1
    38    32    27   ar
    39     9     4   ar
    40    24    25    1
@<TRIPOS>MOLECULE
*****
 37 40 0 0 0
SMALL
GASTEIGER

@<TRIPOS>ATOM
      1 N         142.5952  143.6090  158.8289 N.am    1  UNL1       -0.2644
      2 C         142.9939  143.6509  157.3835 C.2     1  UNL1        0.2494
      3 O         144.1229  142.8868  156.7577 O.2     1  UNL1       -0.2699
      4 C         142.0654  144.5911  156.6736 C.ar    1  UNL1        0.0516
      5 C         141.9798  145.0259  155.2405 C.ar    1  UNL1        0.0043
      6 C         140.9217  145.9999  154.8142 C.ar    1  UNL1        0.0001
      7 C         139.9492  146.5390  155.8210 C.ar    1  UNL1       -0.0003
      8 C         140.0347  146.1042  157.2540 C.ar    1  UNL1       -0.0021
      9 C         141.0928  145.1303  157.6803 C.ar    1  UNL1        0.0089
     10 C         141.4203  144.5233  159.0123 C.3     1  UNL1        0.1752
     11 C         144.8496  140.8319  162.4941 C.2     1  UNL1        0.4047
     12 O         146.0416  141.3781  163.2227 O.2     1  UNL1       -0.2262
     13 N         144.1893  141.6453  161.4205 N.am    1  UNL1       -0.2425
     14 C         143.0187  141.4424  160.5048 C.3     1  UNL1        0.1183
     15 C         143.2555  142.7956  159.9024 C.3     1  UNL1        0.1161
     16 C         144.4261  142.9985  160.8182 C.3     1  UNL1        0.1183
     17 O         144.3179  139.4724  162.8389 O.3     1  UNL1       -0.4418
     18 C         142.3084  139.4367  163.5175 C.3     1  UNL1        0.0437
     19 C         143.6490  139.2421  164.1616 C.3     1  UNL1        0.1378
     20 C         144.9896  139.0474  164.8057 C.3     1  UNL1        0.0437
     21 C         142.9801  139.0117  165.4843 C.3     1  UNL1        0.0437
     22 C         140.6994  144.7847  160.3015 C.2     1  UNL1        0.2451
     23 O         139.2689  144.3623  160.4599 O.2     1  UNL1       -0.2729
     24 N         141.4090  145.4687  161.4323 N.am    1  UNL1       -0.2988
     25 H         142.3479  145.7460  161.3284 H       1  UNL1        0.1498
     26 C         140.6881  145.7301  162.7215 C.3     1  UNL1        0.1164
     27 C         140.7240  144.7103  163.8209 C.ar    1  UNL1       -0.0024
     28 C         141.9290  143.8336  163.9915 C.ar    1  UNL1        0.0005
     29 C         141.9650  142.8137  165.0910 C.ar    1  UNL1        0.0369
     30 C         140.7959  142.6707  166.0198 C.ar    1  UNL1        0.1468
     31 C         139.5908  143.5475  165.8491 C.ar    1  UNL1        0.0369
     32 C         139.5549  144.5673  164.7497 C.ar    1  UNL1        0.0005
     33 O         140.8318  141.6509  167.1192 O.3     1  UNL1       -0.4045
     34 C         139.7455  140.6217  167.2232 C.3     1  UNL1        0.5753
     35 F         138.6593  139.5925  167.3271 F       1  UNL1       -0.1328
     36 F         139.5700  140.9537  168.6754 F       1  UNL1       -0.1328
     37 F         139.9210  140.2898  165.7709 F       1  UNL1       -0.1328
@<TRIPOS>BOND
     1    18    19    1
     2    19    20    1
     3    19    21    1
     4    19    17    1
     5    17    11    1
     6    11    12    2
     7    11    13   am
     8    13    14    1
     9    14    15    1
    10    15     1    1
    11     1     2   am
    12     2     3    2
    13     2     4    1
    14     4     5   ar
    15     5     6   ar
    16     6     7   ar
    17     7     8   ar
    18     8     9   ar
    19     9    10    1
    20    10    22    1
    21    22    23    2
    22    22    24   am
    23    24    26    1
    24    26    27    1
    25    27    28   ar
    26    28    29   ar
    27    29    30   ar
    28    30    33    1
    29    33    34    1
    30    34    35    1
    31    34    36    1
    32    34    37    1
    33    30    31   ar
    34    31    32   ar
    35    15    16    1
    36    16    13    1
    37    10     1    1
    38    32    27   ar
    39     9     4   ar
    40    24    25    1
@<TRIPOS>MOLECULE
*****
 37 40 0 0 0
SMALL
GASTEIGER

@<TRIPOS>ATOM
      1 N         140.0357  140.4415  166.4363 N.am    1  UNL1       -0.2644
      2 C         139.5670  140.0065  167.7932 C.2     1  UNL1        0.2494
      3 O         138.3703  139.1485  168.0793 O.2     1  UNL1       -0.2699
      4 C         140.5049  140.5800  168.8136 C.ar    1  UNL1        0.0516
      5 C         140.5398  140.4853  170.3102 C.ar    1  UNL1        0.0043
      6 C         141.6231  141.1801  171.0806 C.ar    1  UNL1        0.0001
      7 C         142.6716  141.9696  170.3544 C.ar    1  UNL1       -0.0003
      8 C         142.6368  142.0643  168.8578 C.ar    1  UNL1       -0.0021
      9 C         141.5534  141.3695  168.0874 C.ar    1  UNL1        0.0089
     10 C         141.2634  141.2839  166.6182 C.3     1  UNL1        0.1752
     11 C         137.8316  139.2585  161.9676 C.2     1  UNL1        0.4047
     12 O         137.4211  137.8437  161.6850 O.2     1  UNL1       -0.2262
     13 N         138.4771  139.6050  163.2764 N.am    1  UNL1       -0.2425
     14 C         139.0052  140.8638  163.8982 C.3     1  UNL1        0.1183
     15 C         139.3901  140.0950  165.1274 C.3     1  UNL1        0.1161
     16 C         138.8620  138.8362  164.5056 C.3     1  UNL1        0.1183
     17 O         137.5964  140.3268  160.9412 O.3     1  UNL1       -0.4418
     18 C         138.4359  142.2511  160.6373 C.3     1  UNL1        0.0437
     19 C         138.7468  140.8685  160.1455 C.3     1  UNL1        0.1378
     20 C         139.0577  139.4860  159.6537 C.3     1  UNL1        0.0437
     21 C         139.8971  141.4103  159.3497 C.3     1  UNL1        0.0437
     22 C         142.0611  141.9277  165.5231 C.2     1  UNL1        0.2451
     23 O         143.1349  141.1507  164.8211 O.2     1  UNL1       -0.2729
     24 N         141.7849  143.3488  165.1301 N.am    1  UNL1       -0.2988
     25 H         141.0801  143.8589  165.5908 H       1  UNL1        0.1498
     26 C         142.5826  143.9926  164.0350 C.3     1  UNL1        0.1164
     27 C         141.9020  144.4416  162.7760 C.ar    1  UNL1       -0.0024
     28 C         140.7406  145.3881  162.8480 C.ar    1  UNL1        0.0005
     29 C         140.0599  145.8372  161.5889 C.ar    1  UNL1        0.0369
     30 C         140.5407  145.3398  160.2580 C.ar    1  UNL1        0.1468
     31 C         141.7021  144.3933  160.1861 C.ar    1  UNL1        0.0369
     32 C         142.3828  143.9442  161.4451 C.ar    1  UNL1        0.0005
     33 O         139.8601  145.7888  158.9990 O.3     1  UNL1       -0.4045
     34 C         140.3344  145.2833  157.6688 C.3     1  UNL1        0.5753
     35 F         140.8088  144.7778  156.3386 F       1  UNL1       -0.1328
     36 F         139.3072  144.1913  157.7174 F       1  UNL1       -0.1328
     37 F         141.3617  146.3753  157.6202 F       1  UNL1       -0.1328
@<TRIPOS>BOND
     1    18    19    1
     2    19    20    1
     3    19    21    1
     4    19    17    1
     5    17    11    1
     6    11    12    2
     7    11    13   am
     8    13    14    1
     9    14    15    1
    10    15     1    1
    11     1     2   am
    12     2     3    2
    13     2     4    1
    14     4     5   ar
    15     5     6   ar
    16     6     7   ar
    17     7     8   ar
    18     8     9   ar
    19     9    10    1
    20    10    22    1
    21    22    23    2
    22    22    24   am
    23    24    26    1
    24    26    27    1
    25    27    28   ar
    26    28    29   ar
    27    29    30   ar
    28    30    33    1
    29    33    34    1
    30    34    35    1
    31    34    36    1
    32    34    37    1
    33    30    31   ar
    34    31    32   ar
    35    15    16    1
    36    16    13    1
    37    10     1    1
    38    32    27   ar
    39     9     4   ar
    40    24    25    1
@<TRIPOS>MOLECULE
*****
 37 40 0 0 0
SMALL
GASTEIGER

@<TRIPOS>ATOM
      1 N         142.1491  142.7669  159.1664 N.am    1  UNL1       -0.2644
      2 C         142.1292  142.5855  157.6775 C.2     1  UNL1        0.2494
      3 O         140.9043  142.5044  156.8155 O.2     1  UNL1       -0.2699
      4 C         143.5492  142.4994  157.2020 C.ar    1  UNL1        0.0516
      5 C         144.1409  142.3208  155.8353 C.ar    1  UNL1        0.0043
      6 C         145.6302  142.2704  155.6636 C.ar    1  UNL1        0.0001
      7 C         146.5277  142.3986  156.8585 C.ar    1  UNL1       -0.0003
      8 C         145.9360  142.5772  158.2253 C.ar    1  UNL1       -0.0021
      9 C         144.4468  142.6275  158.3970 C.ar    1  UNL1        0.0089
     10 C         143.5814  142.7929  159.6110 C.3     1  UNL1        0.1752
     11 C         138.0470  143.2182  162.1990 C.2     1  UNL1        0.4047
     12 O         137.6215  144.5706  162.6887 O.2     1  UNL1       -0.2262
     13 N         139.2485  143.0860  161.3107 N.am    1  UNL1       -0.2425
     14 C         139.9549  141.9422  160.6454 C.3     1  UNL1        0.1183
     15 C         140.9476  142.8991  160.0546 C.3     1  UNL1        0.1161
     16 C         140.2411  144.0429  160.7200 C.3     1  UNL1        0.1183
     17 O         137.2710  141.9980  162.5975 O.3     1  UNL1       -0.4418
     18 C         137.9792  142.0664  164.5959 C.3     1  UNL1        0.0437
     19 C         137.8730  141.0023  163.5441 C.3     1  UNL1        0.1378
     20 C         137.7668  139.9381  162.4922 C.3     1  UNL1        0.0437
     21 C         138.4751  140.0065  164.4907 C.3     1  UNL1        0.0437
     22 C         144.0638  142.9556  161.0220 C.2     1  UNL1        0.2451
     23 O         143.7009  144.1845  161.8017 O.2     1  UNL1       -0.2729
     24 N         144.9092  141.8894  161.6533 N.am    1  UNL1       -0.2988
     25 H         145.1474  141.0827  161.1416 H       1  UNL1        0.1498
     26 C         145.3915  142.0521  163.0643 C.3     1  UNL1        0.1164
     27 C         144.4970  141.6819  164.2100 C.ar    1  UNL1       -0.0024
     28 C         144.1075  140.2494  164.4249 C.ar    1  UNL1        0.0005
     29 C         143.2130  139.8791  165.5707 C.ar    1  UNL1        0.0369
     30 C         142.7079  140.9413  166.5015 C.ar    1  UNL1        0.1468
     31 C         143.0975  142.3739  166.2866 C.ar    1  UNL1        0.0369
     32 C         143.9920  142.7442  165.1409 C.ar    1  UNL1        0.0005
     33 O         141.8134  140.5711  167.6473 O.3     1  UNL1       -0.4045
     34 C         141.9474  141.2796  168.9626 C.3     1  UNL1        0.5753
     35 F         142.0814  141.9881  170.2779 F       1  UNL1       -0.1328
     36 F         140.6518  141.9924  168.7107 F       1  UNL1       -0.1328
     37 F         143.2430  140.5669  169.2145 F       1  UNL1       -0.1328
@<TRIPOS>BOND
     1    18    19    1
     2    19    20    1
     3    19    21    1
     4    19    17    1
     5    17    11    1
     6    11    12    2
     7    11    13   am
     8    13    14    1
     9    14    15    1
    10    15     1    1
    11     1     2   am
    12     2     3    2
    13     2     4    1
    14     4     5   ar
    15     5     6   ar
    16     6     7   ar
    17     7     8   ar
    18     8     9   ar
    19     9    10    1
    20    10    22    1
    21    22    23    2
    22    22    24   am
    23    24    26    1
    24    26    27    1
    25    27    28   ar
    26    28    29   ar
    27    29    30   ar
    28    30    33    1
    29    33    34    1
    30    34    35    1
    31    34    36    1
    32    34    37    1
    33    30    31   ar
    34    31    32   ar
    35    15    16    1
    36    16    13    1
    37    10     1    1
    38    32    27   ar
    39     9     4   ar
    40    24    25    1
@<TRIPOS>MOLECULE
*****
 37 40 0 0 0
SMALL
GASTEIGER

@<TRIPOS>ATOM
      1 N         140.6073  139.0775  157.9962 N.am    1  UNL1       -0.2644
      2 C         139.7859  138.4717  156.8969 C.2     1  UNL1        0.2494
      3 O         138.4671  138.9830  156.3975 O.2     1  UNL1       -0.2699
      4 C         140.5149  137.2650  156.3847 C.ar    1  UNL1        0.0516
      5 C         140.1848  136.2756  155.3067 C.ar    1  UNL1        0.0043
      6 C         141.1266  135.1461  155.0114 C.ar    1  UNL1        0.0001
      7 C         142.3985  135.0061  155.7942 C.ar    1  UNL1       -0.0003
      8 C         142.7286  135.9954  156.8722 C.ar    1  UNL1       -0.0021
      9 C         141.7868  137.1249  157.1674 C.ar    1  UNL1        0.0089
     10 C         141.8438  138.2451  158.1634 C.3     1  UNL1        0.1752
     11 C         139.4013  143.2543  160.7032 C.2     1  UNL1        0.4047
     12 O         138.1117  143.3062  161.4675 O.2     1  UNL1       -0.2262
     13 N         139.7545  142.0309  159.9103 N.am    1  UNL1       -0.2425
     14 C         140.9131  141.6230  159.0493 C.3     1  UNL1        0.1183
     15 C         140.2540  140.3009  158.7891 C.3     1  UNL1        0.1161
     16 C         139.0955  140.7089  159.6501 C.3     1  UNL1        0.1183
     17 O         140.3377  144.4257  160.7318 O.3     1  UNL1       -0.4418
     18 C         139.9600  146.0927  161.9882 C.3     1  UNL1        0.0437
     19 C         140.8873  144.9148  162.0389 C.3     1  UNL1        0.1378
     20 C         141.8147  143.7370  162.0897 C.3     1  UNL1        0.0437
     21 C         141.4370  145.4039  163.3461 C.3     1  UNL1        0.0437
     22 C         142.9444  138.4899  159.1528 C.2     1  UNL1        0.2451
     23 O         144.0450  139.4554  158.8268 O.2     1  UNL1       -0.2729
     24 N         142.9442  137.7691  160.4683 N.am    1  UNL1       -0.2988
     25 H         142.2218  137.1354  160.6824 H       1  UNL1        0.1498
     26 C         144.0447  138.0139  161.4578 C.3     1  UNL1        0.1164
     27 C         143.8606  139.0265  162.5490 C.ar    1  UNL1       -0.0024
     28 C         144.5371  140.3620  162.4548 C.ar    1  UNL1        0.0005
     29 C         144.3529  141.3747  163.5460 C.ar    1  UNL1        0.0369
     30 C         143.4923  141.0518  164.7314 C.ar    1  UNL1        0.1468
     31 C         142.8159  139.7163  164.8255 C.ar    1  UNL1        0.0369
     32 C         143.0000  138.7036  163.7343 C.ar    1  UNL1        0.0005
     33 O         143.3082  142.0644  165.8226 O.3     1  UNL1       -0.4045
     34 C         141.9857  142.1826  166.5205 C.3     1  UNL1        0.5753
     35 F         140.6632  142.3009  167.2184 F       1  UNL1       -0.1328
     36 F         142.6028  141.6509  167.7800 F       1  UNL1       -0.1328
     37 F         141.3686  142.7143  165.2609 F       1  UNL1       -0.1328
@<TRIPOS>BOND
     1    18    19    1
     2    19    20    1
     3    19    21    1
     4    19    17    1
     5    17    11    1
     6    11    12    2
     7    11    13   am
     8    13    14    1
     9    14    15    1
    10    15     1    1
    11     1     2   am
    12     2     3    2
    13     2     4    1
    14     4     5   ar
    15     5     6   ar
    16     6     7   ar
    17     7     8   ar
    18     8     9   ar
    19     9    10    1
    20    10    22    1
    21    22    23    2
    22    22    24   am
    23    24    26    1
    24    26    27    1
    25    27    28   ar
    26    28    29   ar
    27    29    30   ar
    28    30    33    1
    29    33    34    1
    30    34    35    1
    31    34    36    1
    32    34    37    1
    33    30    31   ar
    34    31    32   ar
    35    15    16    1
    36    16    13    1
    37    10     1    1
    38    32    27   ar
    39     9     4   ar
    40    24    25    1
@<TRIPOS>MOLECULE
*****
 37 40 0 0 0
SMALL
GASTEIGER

@<TRIPOS>ATOM
      1 N         142.4113  140.0639  158.9260 N.am    1  UNL1       -0.2644
      2 C         143.2004  139.5370  157.7643 C.2     1  UNL1        0.2494
      3 O         144.6455  139.8203  157.4790 O.2     1  UNL1       -0.2699
      4 C         142.2908  138.6769  156.9380 C.ar    1  UNL1        0.0516
      5 C         142.5184  137.8973  155.6769 C.ar    1  UNL1        0.0043
      6 C         141.3947  137.1132  155.0667 C.ar    1  UNL1        0.0001
      7 C         140.0433  137.1086  155.7177 C.ar    1  UNL1       -0.0003
      8 C         139.8157  137.8882  156.9788 C.ar    1  UNL1       -0.0021
      9 C         140.9394  138.6723  157.5889 C.ar    1  UNL1        0.0089
     10 C         141.0139  139.5296  158.8176 C.3     1  UNL1        0.1752
     11 C         144.1777  143.1464  162.6146 C.2     1  UNL1        0.4047
     12 O         144.0305  144.6334  162.4839 O.2     1  UNL1       -0.2262
     13 N         143.6604  142.2435  161.5342 N.am    1  UNL1       -0.2425
     14 C         143.6260  140.7596  161.3182 C.3     1  UNL1        0.1183
     15 C         142.9287  140.9668  160.0064 C.3     1  UNL1        0.1161
     16 C         142.9630  142.4508  160.2225 C.3     1  UNL1        0.1183
     17 O         144.8424  142.5622  163.8258 O.3     1  UNL1       -0.4418
     18 C         143.5373  141.1875  164.7780 C.3     1  UNL1        0.0437
     19 C         144.1139  142.5250  165.1365 C.3     1  UNL1        0.1378
     20 C         144.6905  143.8625  165.4950 C.3     1  UNL1        0.0437
     21 C         143.3854  142.4877  166.4472 C.3     1  UNL1        0.0437
     22 C         139.8885  139.8042  159.7706 C.2     1  UNL1        0.2451
     23 O         139.5169  141.2184  160.1047 O.2     1  UNL1       -0.2729
     24 N         139.1347  138.6644  160.3894 N.am    1  UNL1       -0.2988
     25 H         139.3786  137.7362  160.1701 H       1  UNL1        0.1498
     26 C         138.0093  138.9391  161.3424 C.3     1  UNL1        0.1164
     27 C         138.2705  138.9822  162.8188 C.ar    1  UNL1       -0.0024
     28 C         138.7991  137.7676  163.5226 C.ar    1  UNL1        0.0005
     29 C         139.0603  137.8107  164.9992 C.ar    1  UNL1        0.0369
     30 C         138.7930  139.0683  165.7717 C.ar    1  UNL1        0.1468
     31 C         138.2645  140.2829  165.0678 C.ar    1  UNL1        0.0369
     32 C         138.0032  140.2398  163.5913 C.ar    1  UNL1        0.0005
     33 O         139.0542  139.1115  167.2481 O.3     1  UNL1       -0.4045
     34 C         139.9603  140.1617  167.8190 C.3     1  UNL1        0.5753
     35 F         140.8664  141.2120  168.3899 F       1  UNL1       -0.1328
     36 F         140.9610  139.8872  166.7359 F       1  UNL1       -0.1328
     37 F         138.9596  140.4363  168.9022 F       1  UNL1       -0.1328
@<TRIPOS>BOND
     1    18    19    1
     2    19    20    1
     3    19    21    1
     4    19    17    1
     5    17    11    1
     6    11    12    2
     7    11    13   am
     8    13    14    1
     9    14    15    1
    10    15     1    1
    11     1     2   am
    12     2     3    2
    13     2     4    1
    14     4     5   ar
    15     5     6   ar
    16     6     7   ar
    17     7     8   ar
    18     8     9   ar
    19     9    10    1
    20    10    22    1
    21    22    23    2
    22    22    24   am
    23    24    26    1
    24    26    27    1
    25    27    28   ar
    26    28    29   ar
    27    29    30   ar
    28    30    33    1
    29    33    34    1
    30    34    35    1
    31    34    36    1
    32    34    37    1
    33    30    31   ar
    34    31    32   ar
    35    15    16    1
    36    16    13    1
    37    10     1    1
    38    32    27   ar
    39     9     4   ar
    40    24    25    1
@<TRIPOS>MOLECULE
*****
 37 40 0 0 0
SMALL
GASTEIGER

@<TRIPOS>ATOM
      1 N         139.7908  142.4847  159.3998 N.am    1  UNL1       -0.2644
      2 C         139.3672  142.2993  157.9729 C.2     1  UNL1        0.2494
      3 O         138.8506  141.0293  157.3644 O.2     1  UNL1       -0.2699
      4 C         139.5507  143.6069  157.2611 C.ar    1  UNL1        0.0516
      5 C         139.2981  144.0212  155.8418 C.ar    1  UNL1        0.0043
      6 C         139.5827  145.4291  155.4096 C.ar    1  UNL1        0.0001
      7 C         140.1199  146.4226  156.3966 C.ar    1  UNL1       -0.0003
      8 C         140.3724  146.0083  157.8159 C.ar    1  UNL1       -0.0021
      9 C         140.0879  144.6005  158.2482 C.ar    1  UNL1        0.0089
     10 C         140.2363  143.9069  159.5699 C.3     1  UNL1        0.1752
     11 C         139.7277  138.8928  163.0497 C.2     1  UNL1        0.4047
     12 O         140.9604  138.0849  163.3283 O.2     1  UNL1       -0.2262
     13 N         139.7462  139.9449  161.9807 N.am    1  UNL1       -0.2425
     14 C         138.7452  140.9190  161.4338 C.3     1  UNL1        0.1183
     15 C         139.7724  141.4327  160.4688 C.3     1  UNL1        0.1161
     16 C         140.7734  140.4585  161.0158 C.3     1  UNL1        0.1183
     17 O         138.4766  138.6488  163.8402 O.3     1  UNL1       -0.4418
     18 C         138.6140  137.4271  165.5690 C.3     1  UNL1        0.0437
     19 C         138.4631  138.8985  165.3192 C.3     1  UNL1        0.1378
     20 C         138.3123  140.3698  165.0694 C.3     1  UNL1        0.0437
     21 C         138.4497  139.1482  166.7982 C.3     1  UNL1        0.0437
     22 C         140.7414  144.5268  160.8390 C.2     1  UNL1        0.2451
     23 O         139.9950  145.6669  161.4658 O.2     1  UNL1       -0.2729
     24 N         141.9932  144.0065  161.4814 N.am    1  UNL1       -0.2988
     25 H         142.4831  143.2582  161.0701 H       1  UNL1        0.1498
     26 C         142.4983  144.6264  162.7505 C.3     1  UNL1        0.1164
     27 C         142.3994  143.8734  164.0440 C.ar    1  UNL1       -0.0024
     28 C         143.6381  143.3289  164.6914 C.ar    1  UNL1        0.0005
     29 C         143.5392  142.5758  165.9850 C.ar    1  UNL1        0.0369
     30 C         142.2016  142.3674  166.6312 C.ar    1  UNL1        0.1468
     31 C         140.9630  142.9120  165.9837 C.ar    1  UNL1        0.0369
     32 C         141.0618  143.6650  164.6901 C.ar    1  UNL1        0.0005
     33 O         142.1027  141.6144  167.9247 O.3     1  UNL1       -0.4045
     34 C         142.5082  140.1716  167.9854 C.3     1  UNL1        0.5753
     35 F         142.9138  138.7287  168.0462 F       1  UNL1       -0.1328
     36 F         143.2507  140.4340  169.2621 F       1  UNL1       -0.1328
     37 F         141.7658  139.9091  166.7087 F       1  UNL1       -0.1328
@<TRIPOS>BOND
     1    18    19    1
     2    19    20    1
     3    19    21    1
     4    19    17    1
     5    17    11    1
     6    11    12    2
     7    11    13   am
     8    13    14    1
     9    14    15    1
    10    15     1    1
    11     1     2   am
    12     2     3    2
    13     2     4    1
    14     4     5   ar
    15     5     6   ar
    16     6     7   ar
    17     7     8   ar
    18     8     9   ar
    19     9    10    1
    20    10    22    1
    21    22    23    2
    22    22    24   am
    23    24    26    1
    24    26    27    1
    25    27    28   ar
    26    28    29   ar
    27    29    30   ar
    28    30    33    1
    29    33    34    1
    30    34    35    1
    31    34    36    1
    32    34    37    1
    33    30    31   ar
    34    31    32   ar
    35    15    16    1
    36    16    13    1
    37    10     1    1
    38    32    27   ar
    39     9     4   ar
    40    24    25    1
@<TRIPOS>MOLECULE
*****
 37 40 0 0 0
SMALL
GASTEIGER

@<TRIPOS>ATOM
      1 N         141.7863  138.1158  157.8078 N.am    1  UNL1       -0.2644
      2 C         142.4123  137.4023  156.6463 C.2     1  UNL1        0.2494
      3 O         143.8562  137.0151  156.5238 O.2     1  UNL1       -0.2699
      4 C         141.3408  137.1440  155.6289 C.ar    1  UNL1        0.0516
      5 C         141.3717  136.4760  154.2862 C.ar    1  UNL1        0.0043
      6 C         140.1144  136.3619  153.4763 C.ar    1  UNL1        0.0001
      7 C         138.8262  136.9157  154.0089 C.ar    1  UNL1       -0.0003
      8 C         138.7953  137.5837  155.3516 C.ar    1  UNL1       -0.0021
      9 C         140.0526  137.6978  156.1616 C.ar    1  UNL1        0.0089
     10 C         140.3279  138.2984  157.5082 C.3     1  UNL1        0.1752
     11 C         144.2038  139.6576  162.0512 C.2     1  UNL1        0.4047
     12 O         144.1468  138.8190  163.2936 O.2     1  UNL1       -0.2262
     13 N         143.4957  139.2060  160.8084 N.am    1  UNL1       -0.2425
     14 C         143.3307  139.7558  159.4226 C.3     1  UNL1        0.1183
     15 C         142.4944  138.5674  159.0507 C.3     1  UNL1        0.1161
     16 C         142.6594  138.0176  160.4366 C.3     1  UNL1        0.1183
     17 O         144.9689  140.9478  162.0518 O.3     1  UNL1       -0.4418
     18 C         145.9309  141.6384  163.8118 C.3     1  UNL1        0.0437
     19 C         144.6703  141.9964  163.0819 C.3     1  UNL1        0.1378
     20 C         143.4097  142.3544  162.3520 C.3     1  UNL1        0.0437
     21 C         144.3717  143.0450  164.1120 C.3     1  UNL1        0.0437
     22 C         139.3215  138.9647  158.3989 C.2     1  UNL1        0.2451
     23 O         138.4014  140.0096  157.8408 O.2     1  UNL1       -0.2729
     24 N         139.2353  138.5860  159.8478 N.am    1  UNL1       -0.2988
     25 H         139.8392  137.9003  160.2142 H       1  UNL1        0.1498
     26 C         138.2289  139.2523  160.7385 C.3     1  UNL1        0.1164
     27 C         138.3645  139.1529  162.2290 C.ar    1  UNL1       -0.0024
     28 C         138.8924  137.8945  162.8517 C.ar    1  UNL1        0.0005
     29 C         139.0280  137.7950  164.3423 C.ar    1  UNL1        0.0369
     30 C         138.6357  138.9538  165.2102 C.ar    1  UNL1        0.1468
     31 C         138.1077  140.2121  164.5874 C.ar    1  UNL1        0.0369
     32 C         137.9721  140.3117  163.0969 C.ar    1  UNL1        0.0005
     33 O         138.7712  138.8543  166.7007 O.3     1  UNL1       -0.4045
     34 C         139.6703  139.8029  167.4369 C.3     1  UNL1        0.5753
     35 F         140.5693  140.7514  168.1731 F       1  UNL1       -0.1328
     36 F         138.6676  139.8900  168.5491 F       1  UNL1       -0.1328
     37 F         140.6730  139.7158  166.3247 F       1  UNL1       -0.1328
@<TRIPOS>BOND
     1    18    19    1
     2    19    20    1
     3    19    21    1
     4    19    17    1
     5    17    11    1
     6    11    12    2
     7    11    13   am
     8    13    14    1
     9    14    15    1
    10    15     1    1
    11     1     2   am
    12     2     3    2
    13     2     4    1
    14     4     5   ar
    15     5     6   ar
    16     6     7   ar
    17     7     8   ar
    18     8     9   ar
    19     9    10    1
    20    10    22    1
    21    22    23    2
    22    22    24   am
    23    24    26    1
    24    26    27    1
    25    27    28   ar
    26    28    29   ar
    27    29    30   ar
    28    30    33    1
    29    33    34    1
    30    34    35    1
    31    34    36    1
    32    34    37    1
    33    30    31   ar
    34    31    32   ar
    35    15    16    1
    36    16    13    1
    37    10     1    1
    38    32    27   ar
    39     9     4   ar
    40    24    25    1
