@<TRIPOS>MOLECULE
*****
 35 37 0 0 0
SMALL
GASTEIGER

@<TRIPOS>ATOM
      1 C         140.2863  139.9761  167.1070 C.ar    1  UNL1        0.0730
      2 C         140.1028  139.2462  165.8095 C.ar    1  UNL1        0.0322
      3 C         138.8940  138.3833  165.5988 C.ar    1  UNL1        0.0654
      4 C         137.8689  138.2502  166.6857 C.ar    1  UNL1        0.1133
      5 N         138.0524  138.9801  167.9832 N.ar    1  UNL1       -0.2367
      6 C         139.2611  139.8430  168.1939 C.ar    1  UNL1        0.1476
      7 C         139.4446  140.5729  169.4914 C.2     1  UNL1        0.2617
      8 N         139.2246  139.8581  170.7916 N.am    1  UNL1       -0.3240
      9 O         139.8481  142.0177  169.4887 O.2     1  UNL1       -0.2687
     10 H         138.9598  138.9099  170.7934 H       1  UNL1        0.1453
     11 H         139.3451  140.3372  171.6433 H       1  UNL1        0.1453
     12 N         141.4950  140.8390  167.3177 N.pl3   1  UNL1       -0.2965
     13 H         142.0183  140.7591  168.1478 H       1  UNL1        0.1537
     14 C         143.7235  142.8027  164.6856 C.ar    1  UNL1        0.1427
     15 C         142.7295  143.7931  164.1555 C.ar    1  UNL1        0.0517
     16 C         141.3240  143.7989  164.6795 C.ar    1  UNL1        0.0638
     17 C         140.3300  144.7893  164.1493 C.3     1  UNL1        0.0522
     18 N         140.9125  142.8142  165.7335 N.ar    1  UNL1       -0.2347
     19 C         141.9065  141.8238  166.2636 C.ar    1  UNL1        0.1348
     20 C         143.3120  141.8180  165.7396 C.ar    1  UNL1        0.0712
     21 C         145.7681  141.5062  163.7431 C.3     1  UNL1        0.2525
     22 O         145.1290  142.7970  164.1616 O.3     1  UNL1       -0.4713
     23 N         138.7105  137.6534  164.3013 N.pl3   1  UNL1       -0.3303
     24 H         138.3559  136.7350  164.2990 H       1  UNL1        0.1469
     25 C         139.0673  138.3229  163.0072 C.3     1  UNL1        0.1073
     26 C         138.1789  139.3938  162.4470 C.3     1  UNL1        0.1715
     27 S         138.5357  140.0633  161.1529 S.O2    1  UNL1       -0.0083
     28 O         138.4496  140.9832  159.9712 O.2     1  UNL1       -0.1729
     29 O         137.2607  140.7843  161.4763 O.2     1  UNL1       -0.1729
     30 C         139.7808  139.6618  160.4191 C.3     1  UNL1        0.1523
     31 C         140.6691  138.5908  160.9794 C.3     1  UNL1        0.0425
     32 C         140.3124  137.9214  162.2734 C.3     1  UNL1        0.0724
     33 N         141.2008  136.8504  162.8337 N.3     1  UNL1       -0.3208
     34 H         140.8092  136.5085  163.7112 H       1  UNL1        0.1189
     35 H         142.1306  137.2340  163.0028 H       1  UNL1        0.1189
@<TRIPOS>BOND
     1    21    22    1
     2    22    14    1
     3    14    15   ar
     4    15    16   ar
     5    16    17    1
     6    16    18   ar
     7    18    19   ar
     8    19    12    1
     9    12     1    1
    10     1     2   ar
    11     2     3   ar
    12     3    23    1
    13    25    23    1
    14    25    26    1
    15    26    27    1
    16    27    28    2
    17    27    29    2
    18    27    30    1
    19    30    31    1
    20    31    32    1
    21    32    33    1
    22     3     4   ar
    23     4     5   ar
    24     5     6   ar
    25     6     7    1
    26     7     8   am
    27     7     9    2
    28    19    20   ar
    29    20    14   ar
    30     6     1   ar
    31    32    25    1
    32    12    13    1
    33    23    24    1
    34    33    34    1
    35    33    35    1
    36     8    10    1
    37     8    11    1
@<TRIPOS>MOLECULE
*****
 35 37 0 0 0
SMALL
GASTEIGER

@<TRIPOS>ATOM
      1 C         140.3610  139.9484  167.1161 C.ar    1  UNL1        0.0730
      2 C         140.1654  139.2233  165.8177 C.ar    1  UNL1        0.0322
      3 C         138.9271  138.4067  165.5939 C.ar    1  UNL1        0.0654
      4 C         137.8846  138.3153  166.6685 C.ar    1  UNL1        0.1133
      5 N         138.0803  139.0404  167.9669 N.ar    1  UNL1       -0.2367
      6 C         139.3184  139.8570  168.1907 C.ar    1  UNL1        0.1476
      7 C         139.5141  140.5821  169.4891 C.2     1  UNL1        0.2617
      8 N         139.2982  139.8649  170.7887 N.am    1  UNL1       -0.3240
      9 O         139.9256  142.0246  169.4879 O.2     1  UNL1       -0.2687
     10 H         139.0281  138.9181  170.7894 H       1  UNL1        0.1453
     11 H         139.4266  140.3408  171.6409 H       1  UNL1        0.1453
     12 N         141.5992  140.7650  167.3399 N.pl3   1  UNL1       -0.2965
     13 H         142.0679  140.7215  168.2046 H       1  UNL1        0.1537
     14 C         141.8115  143.6653  164.6394 C.ar    1  UNL1        0.1427
     15 C         143.1715  143.4133  164.0591 C.ar    1  UNL1        0.0517
     16 C         144.0075  142.2785  164.5724 C.ar    1  UNL1        0.0638
     17 C         145.3675  142.0265  163.9920 C.3     1  UNL1        0.0522
     18 N         143.4834  141.3957  165.6660 N.ar    1  UNL1       -0.2347
     19 C         142.1234  141.6477  166.2463 C.ar    1  UNL1        0.1348
     20 C         141.2874  142.7825  165.7330 C.ar    1  UNL1        0.0712
     21 C         139.4858  144.7719  164.2983 C.3     1  UNL1        0.2525
     22 O         140.9756  144.8001  164.1261 O.3     1  UNL1       -0.4713
     23 N         138.7315  137.6815  164.2955 N.pl3   1  UNL1       -0.3303
     24 H         138.3766  136.7632  164.2931 H       1  UNL1        0.1469
     25 C         139.0766  138.3556  163.0006 C.3     1  UNL1        0.1073
     26 C         138.1891  139.4360  162.4576 C.3     1  UNL1        0.1715
     27 S         138.5342  140.1100  161.1627 S.O2    1  UNL1       -0.0083
     28 O         138.4399  141.0370  159.9872 O.2     1  UNL1       -0.1729
     29 O         137.2688  140.8384  161.5063 O.2     1  UNL1       -0.1729
     30 C         139.7669  139.7035  160.4109 C.3     1  UNL1        0.1523
     31 C         140.6545  138.6230  160.9539 C.3     1  UNL1        0.0425
     32 C         140.3093  137.9491  162.2487 C.3     1  UNL1        0.0724
     33 N         141.1969  136.8686  162.7918 N.3     1  UNL1       -0.3208
     34 H         140.8140  136.5247  163.6724 H       1  UNL1        0.1189
     35 H         142.1316  137.2445  162.9512 H       1  UNL1        0.1189
@<TRIPOS>BOND
     1    21    22    1
     2    22    14    1
     3    14    15   ar
     4    15    16   ar
     5    16    17    1
     6    16    18   ar
     7    18    19   ar
     8    19    12    1
     9    12     1    1
    10     1     2   ar
    11     2     3   ar
    12     3    23    1
    13    25    23    1
    14    25    26    1
    15    26    27    1
    16    27    28    2
    17    27    29    2
    18    27    30    1
    19    30    31    1
    20    31    32    1
    21    32    33    1
    22     3     4   ar
    23     4     5   ar
    24     5     6   ar
    25     6     7    1
    26     7     8   am
    27     7     9    2
    28    19    20   ar
    29    20    14   ar
    30     6     1   ar
    31    32    25    1
    32    12    13    1
    33    23    24    1
    34    33    34    1
    35    33    35    1
    36     8    10    1
    37     8    11    1
@<TRIPOS>MOLECULE
*****
 35 37 0 0 0
SMALL
GASTEIGER

@<TRIPOS>ATOM
      1 C         141.6635  140.0675  166.9149 C.ar    1  UNL1        0.0730
      2 C         140.5544  140.0406  165.9052 C.ar    1  UNL1        0.0322
      3 C         139.1338  139.8707  166.3559 C.ar    1  UNL1        0.0654
      4 C         138.8223  139.7276  167.8162 C.ar    1  UNL1        0.1133
      5 N         139.9313  139.7544  168.8258 N.ar    1  UNL1       -0.2367
      6 C         141.3519  139.9244  168.3752 C.ar    1  UNL1        0.1476
      7 C         142.4609  139.9513  169.3849 C.2     1  UNL1        0.2617
      8 N         142.7244  138.7486  170.2417 N.am    1  UNL1       -0.3240
      9 O         143.3064  141.1809  169.5377 O.2     1  UNL1       -0.2687
     10 H         142.1695  137.9416  170.1414 H       1  UNL1        0.1453
     11 H         143.4523  138.7663  170.9043 H       1  UNL1        0.1453
     12 N         143.0840  140.2374  166.4643 N.pl3   1  UNL1       -0.2965
     13 H         143.8094  140.2800  167.1285 H       1  UNL1        0.1537
     14 C         144.1056  141.7705  162.9491 C.ar    1  UNL1        0.1427
     15 C         144.0301  140.5530  162.0762 C.ar    1  UNL1        0.0517
     16 C         143.6393  139.2304  162.6659 C.ar    1  UNL1        0.0638
     17 C         143.5638  138.0129  161.7929 C.3     1  UNL1        0.0522
     18 N         143.3239  139.1251  164.1286 N.ar    1  UNL1       -0.2347
     19 C         143.3994  140.3426  165.0015 C.ar    1  UNL1        0.1348
     20 C         143.7902  141.6653  164.4118 C.ar    1  UNL1        0.0712
     21 C         143.8859  144.3584  162.8849 C.3     1  UNL1        0.2525
     22 O         144.4964  143.0931  162.3594 O.3     1  UNL1       -0.4713
     23 N         138.0248  139.8438  165.3463 N.pl3   1  UNL1       -0.3303
     24 H         137.3086  139.1723  165.4196 H       1  UNL1        0.1469
     25 C         138.0071  140.8400  164.2250 C.3     1  UNL1        0.1073
     26 C         137.9128  142.3065  164.5260 C.3     1  UNL1        0.1715
     27 S         137.8950  143.3027  163.4047 S.O2    1  UNL1       -0.0083
     28 O         137.8446  144.6212  162.6913 O.2     1  UNL1       -0.1729
     29 O         137.8009  144.2309  164.5793 O.2     1  UNL1       -0.1729
     30 C         137.9717  142.8324  161.9824 C.3     1  UNL1        0.1523
     31 C         138.0660  141.3659  161.6814 C.3     1  UNL1        0.0425
     32 C         138.0837  140.3698  162.8027 C.3     1  UNL1        0.0724
     33 N         138.1781  138.9033  162.5017 N.3     1  UNL1       -0.3208
     34 H         138.1777  138.3762  163.3750 H       1  UNL1        0.1189
     35 H         139.0413  138.7157  161.9918 H       1  UNL1        0.1189
@<TRIPOS>BOND
     1    21    22    1
     2    22    14    1
     3    14    15   ar
     4    15    16   ar
     5    16    17    1
     6    16    18   ar
     7    18    19   ar
     8    19    12    1
     9    12     1    1
    10     1     2   ar
    11     2     3   ar
    12     3    23    1
    13    25    23    1
    14    25    26    1
    15    26    27    1
    16    27    28    2
    17    27    29    2
    18    27    30    1
    19    30    31    1
    20    31    32    1
    21    32    33    1
    22     3     4   ar
    23     4     5   ar
    24     5     6   ar
    25     6     7    1
    26     7     8   am
    27     7     9    2
    28    19    20   ar
    29    20    14   ar
    30     6     1   ar
    31    32    25    1
    32    12    13    1
    33    23    24    1
    34    33    34    1
    35    33    35    1
    36     8    10    1
    37     8    11    1
@<TRIPOS>MOLECULE
*****
 35 37 0 0 0
SMALL
GASTEIGER

@<TRIPOS>ATOM
      1 C         140.1182  139.9164  166.8910 C.ar    1  UNL1        0.0730
      2 C         141.2529  139.7421  165.9256 C.ar    1  UNL1        0.0322
      3 C         142.6699  139.8355  166.4089 C.ar    1  UNL1        0.0654
      4 C         142.9521  140.1031  167.8576 C.ar    1  UNL1        0.1133
      5 N         141.8174  140.2773  168.8230 N.ar    1  UNL1       -0.2367
      6 C         140.4005  140.1840  168.3398 C.ar    1  UNL1        0.1476
      7 C         139.2657  140.3582  169.3052 C.2     1  UNL1        0.2617
      8 N         139.3051  141.4649  170.3170 N.am    1  UNL1       -0.3240
      9 O         138.0916  139.4258  169.2588 O.2     1  UNL1       -0.2687
     10 H         140.0756  142.0769  170.3474 H       1  UNL1        0.1453
     11 H         138.5603  141.5793  170.9506 H       1  UNL1        0.1453
     12 N         138.7013  139.8230  166.4078 N.pl3   1  UNL1       -0.2965
     13 H         137.9799  139.5974  167.0386 H       1  UNL1        0.1537
     14 C         137.6862  141.7014  163.0624 C.ar    1  UNL1        0.1427
     15 C         137.7477  140.5743  162.0746 C.ar    1  UNL1        0.0517
     16 C         138.1271  139.1967  162.5312 C.ar    1  UNL1        0.0638
     17 C         138.1886  138.0696  161.5433 C.3     1  UNL1        0.0522
     18 N         138.4450  138.9463  163.9756 N.ar    1  UNL1       -0.2347
     19 C         138.3834  140.0734  164.9633 C.ar    1  UNL1        0.1348
     20 C         138.0040  141.4509  164.5068 C.ar    1  UNL1        0.0712
     21 C         137.9607  144.2799  163.2221 C.3     1  UNL1        0.2525
     22 O         137.3068  143.0789  162.6058 O.3     1  UNL1       -0.4713
     23 N         143.8046  139.6612  165.4435 N.pl3   1  UNL1       -0.3303
     24 H         144.3944  138.8760  165.5136 H       1  UNL1        0.1469
     25 C         144.0408  140.6833  164.3713 C.3     1  UNL1        0.1073
     26 C         143.9519  142.1450  164.6959 C.3     1  UNL1        0.1715
     27 S         144.1881  143.1671  163.6236 S.O2    1  UNL1       -0.0083
     28 O         144.3283  144.5030  162.9560 O.2     1  UNL1       -0.1729
     29 O         143.9118  144.0708  164.7885 O.2     1  UNL1       -0.1729
     30 C         144.5130  142.7274  162.2268 C.3     1  UNL1        0.1523
     31 C         144.6018  141.2656  161.9023 C.3     1  UNL1        0.0425
     32 C         144.3657  140.2436  162.9745 C.3     1  UNL1        0.0724
     33 N         144.4545  138.7818  162.6499 N.3     1  UNL1       -0.3208
     34 H         144.2669  138.2349  163.4902 H       1  UNL1        0.1189
     35 H         145.3901  138.5661  162.3057 H       1  UNL1        0.1189
@<TRIPOS>BOND
     1    21    22    1
     2    22    14    1
     3    14    15   ar
     4    15    16   ar
     5    16    17    1
     6    16    18   ar
     7    18    19   ar
     8    19    12    1
     9    12     1    1
    10     1     2   ar
    11     2     3   ar
    12     3    23    1
    13    25    23    1
    14    25    26    1
    15    26    27    1
    16    27    28    2
    17    27    29    2
    18    27    30    1
    19    30    31    1
    20    31    32    1
    21    32    33    1
    22     3     4   ar
    23     4     5   ar
    24     5     6   ar
    25     6     7    1
    26     7     8   am
    27     7     9    2
    28    19    20   ar
    29    20    14   ar
    30     6     1   ar
    31    32    25    1
    32    12    13    1
    33    23    24    1
    34    33    34    1
    35    33    35    1
    36     8    10    1
    37     8    11    1
@<TRIPOS>MOLECULE
*****
 35 37 0 0 0
SMALL
GASTEIGER

@<TRIPOS>ATOM
      1 C         141.6407  140.2165  166.9705 C.ar    1  UNL1        0.0730
      2 C         140.5324  140.1723  165.9606 C.ar    1  UNL1        0.0322
      3 C         139.1203  139.9332  166.4067 C.ar    1  UNL1        0.0654
      4 C         138.8165  139.7383  167.8626 C.ar    1  UNL1        0.1133
      5 N         139.9248  139.7825  168.8725 N.ar    1  UNL1       -0.2367
      6 C         141.3368  140.0216  168.4265 C.ar    1  UNL1        0.1476
      7 C         142.4450  140.0658  169.4363 C.2     1  UNL1        0.2617
      8 N         142.7121  138.8757  170.3094 N.am    1  UNL1       -0.3240
      9 O         143.2862  141.3002  169.5732 O.2     1  UNL1       -0.2687
     10 H         142.1600  138.0655  170.2196 H       1  UNL1        0.1453
     11 H         143.4394  138.9047  170.9722 H       1  UNL1        0.1453
     12 N         143.0527  140.4555  166.5245 N.pl3   1  UNL1       -0.2965
     13 H         143.8030  140.1025  167.0552 H       1  UNL1        0.1537
     14 C         144.1774  141.3214  162.8184 C.ar    1  UNL1        0.1427
     15 C         143.8594  142.7862  162.7606 C.ar    1  UNL1        0.0517
     16 C         143.2725  143.4740  163.9574 C.ar    1  UNL1        0.0638
     17 C         142.9545  144.9389  163.8996 C.3     1  UNL1        0.0522
     18 N         143.0036  142.6972  165.2120 N.ar    1  UNL1       -0.2347
     19 C         143.3216  141.2324  165.2698 C.ar    1  UNL1        0.1348
     20 C         143.9085  140.5446  164.0730 C.ar    1  UNL1        0.0712
     21 C         144.0852  139.4287  161.0410 C.3     1  UNL1        0.2525
     22 O         144.7643  140.6336  161.6215 O.3     1  UNL1       -0.4713
     23 N         138.0121  139.8890  165.3968 N.pl3   1  UNL1       -0.3303
     24 H         137.2937  139.2214  165.4832 H       1  UNL1        0.1469
     25 C         137.9984  140.8620  164.2552 C.3     1  UNL1        0.1073
     26 C         137.8987  142.3341  164.5256 C.3     1  UNL1        0.1715
     27 S         137.8851  143.3071  163.3841 S.O2    1  UNL1       -0.0083
     28 O         137.8355  144.6106  162.6436 O.2     1  UNL1       -0.1729
     29 O         137.7819  144.2588  164.5388 O.2     1  UNL1       -0.1729
     30 C         137.9711  142.8080  161.9722 C.3     1  UNL1        0.1523
     31 C         138.0707  141.3359  161.7018 C.3     1  UNL1        0.0425
     32 C         138.0844  140.3630  162.8433 C.3     1  UNL1        0.0724
     33 N         138.1841  138.8909  162.5729 N.3     1  UNL1       -0.3208
     34 H         138.1799  138.3818  163.4568 H       1  UNL1        0.1189
     35 H         139.0508  138.6951  162.0719 H       1  UNL1        0.1189
@<TRIPOS>BOND
     1    21    22    1
     2    22    14    1
     3    14    15   ar
     4    15    16   ar
     5    16    17    1
     6    16    18   ar
     7    18    19   ar
     8    19    12    1
     9    12     1    1
    10     1     2   ar
    11     2     3   ar
    12     3    23    1
    13    25    23    1
    14    25    26    1
    15    26    27    1
    16    27    28    2
    17    27    29    2
    18    27    30    1
    19    30    31    1
    20    31    32    1
    21    32    33    1
    22     3     4   ar
    23     4     5   ar
    24     5     6   ar
    25     6     7    1
    26     7     8   am
    27     7     9    2
    28    19    20   ar
    29    20    14   ar
    30     6     1   ar
    31    32    25    1
    32    12    13    1
    33    23    24    1
    34    33    34    1
    35    33    35    1
    36     8    10    1
    37     8    11    1
@<TRIPOS>MOLECULE
*****
 35 37 0 0 0
SMALL
GASTEIGER

@<TRIPOS>ATOM
      1 C         140.1195  139.9224  164.7827 C.ar    1  UNL1        0.0730
      2 C         140.5035  139.9909  166.2311 C.ar    1  UNL1        0.0322
      3 C         139.5273  139.5634  167.2868 C.ar    1  UNL1        0.0654
      4 C         138.1673  139.0674  166.8942 C.ar    1  UNL1        0.1133
      5 N         137.7833  138.9988  165.4458 N.ar    1  UNL1       -0.2367
      6 C         138.7593  139.4263  164.3901 C.ar    1  UNL1        0.1476
      7 C         138.3753  139.3578  162.9417 C.2     1  UNL1        0.2617
      8 N         137.3492  140.3038  162.3922 N.am    1  UNL1       -0.3240
      9 O         139.0175  138.3430  162.0427 O.2     1  UNL1       -0.2687
     10 H         136.9278  140.9698  162.9822 H       1  UNL1        0.1453
     11 H         137.0972  140.2588  161.4416 H       1  UNL1        0.1453
     12 N         141.0955  140.3499  163.7270 N.pl3   1  UNL1       -0.2965
     13 H         141.5705  139.6730  163.1927 H       1  UNL1        0.1537
     14 C         140.6550  144.0606  162.3905 C.ar    1  UNL1        0.1427
     15 C         141.8523  144.7261  163.0018 C.ar    1  UNL1        0.0517
     16 C         142.7973  143.9328  163.8548 C.ar    1  UNL1        0.0638
     17 C         143.9946  144.5983  164.4660 C.3     1  UNL1        0.0522
     18 N         142.5451  142.4741  164.0965 N.ar    1  UNL1       -0.2347
     19 C         141.3478  141.8086  163.4853 C.ar    1  UNL1        0.1348
     20 C         140.4027  142.6019  162.6323 C.ar    1  UNL1        0.0712
     21 C         139.6700  146.3489  161.6532 C.3     1  UNL1        0.2525
     22 O         139.7099  144.8539  161.5376 O.3     1  UNL1       -0.4713
     23 N         139.9113  139.6320  168.7352 N.pl3   1  UNL1       -0.3303
     24 H         139.5548  138.9701  169.3709 H       1  UNL1        0.1469
     25 C         140.8386  140.7091  169.2151 C.3     1  UNL1        0.1073
     26 C         140.3013  142.0713  169.5401 C.3     1  UNL1        0.1715
     27 S         141.2286  143.1484  170.0200 S.O2    1  UNL1       -0.0083
     28 O         141.7046  144.4857  170.5046 O.2     1  UNL1       -0.1729
     29 O         139.9295  143.8980  170.0334 O.2     1  UNL1       -0.1729
     30 C         142.6930  142.8631  170.1749 C.3     1  UNL1        0.1523
     31 C         143.2302  141.5008  169.8499 C.3     1  UNL1        0.0425
     32 C         142.3030  140.4238  169.3700 C.3     1  UNL1        0.0724
     33 N         142.8403  139.0615  169.0450 N.3     1  UNL1       -0.3208
     34 H         142.0768  138.4597  168.7364 H       1  UNL1        0.1189
     35 H         143.2749  138.6603  169.8760 H       1  UNL1        0.1189
@<TRIPOS>BOND
     1    21    22    1
     2    22    14    1
     3    14    15   ar
     4    15    16   ar
     5    16    17    1
     6    16    18   ar
     7    18    19   ar
     8    19    12    1
     9    12     1    1
    10     1     2   ar
    11     2     3   ar
    12     3    23    1
    13    25    23    1
    14    25    26    1
    15    26    27    1
    16    27    28    2
    17    27    29    2
    18    27    30    1
    19    30    31    1
    20    31    32    1
    21    32    33    1
    22     3     4   ar
    23     4     5   ar
    24     5     6   ar
    25     6     7    1
    26     7     8   am
    27     7     9    2
    28    19    20   ar
    29    20    14   ar
    30     6     1   ar
    31    32    25    1
    32    12    13    1
    33    23    24    1
    34    33    34    1
    35    33    35    1
    36     8    10    1
    37     8    11    1
@<TRIPOS>MOLECULE
*****
 35 37 0 0 0
SMALL
GASTEIGER

@<TRIPOS>ATOM
      1 C         143.2016  141.3881  164.3798 C.ar    1  UNL1        0.0730
      2 C         142.6692  141.1030  165.7528 C.ar    1  UNL1        0.0322
      3 C         142.8549  139.7449  166.3621 C.ar    1  UNL1        0.0654
      4 C         143.5729  138.6720  165.5984 C.ar    1  UNL1        0.1133
      5 N         144.1053  138.9572  164.2253 N.ar    1  UNL1       -0.2367
      6 C         143.9196  140.3152  163.6160 C.ar    1  UNL1        0.1476
      7 C         144.4520  140.6003  162.2429 C.2     1  UNL1        0.2617
      8 N         144.4089  139.5368  161.1860 N.am    1  UNL1       -0.3240
      9 O         145.0275  141.9490  161.9268 O.2     1  UNL1       -0.2687
     10 H         144.0311  138.6517  161.3935 H       1  UNL1        0.1453
     11 H         144.7583  139.7240  160.2849 H       1  UNL1        0.1453
     12 N         143.0159  142.7461  163.7705 N.pl3   1  UNL1       -0.2965
     13 H         143.8008  143.2952  163.5433 H       1  UNL1        0.1537
     14 C         139.6836  143.7384  161.8571 C.ar    1  UNL1        0.1427
     15 C         138.8711  144.3104  162.9808 C.ar    1  UNL1        0.0517
     16 C         139.4402  144.3610  164.3677 C.ar    1  UNL1        0.0638
     17 C         138.6277  144.9331  165.4914 C.3     1  UNL1        0.0522
     18 N         140.8218  143.8396  164.6309 N.ar    1  UNL1       -0.2347
     19 C         141.6343  143.2676  163.5073 C.ar    1  UNL1        0.1348
     20 C         141.0651  143.2170  162.1203 C.ar    1  UNL1        0.0712
     21 C         138.5312  142.4096  159.9450 C.3     1  UNL1        0.2525
     22 O         139.1144  143.6878  160.4702 O.3     1  UNL1       -0.4713
     23 N         142.3225  139.4597  167.7352 N.pl3   1  UNL1       -0.3303
     24 H         142.1717  138.5299  168.0214 H       1  UNL1        0.1469
     25 C         142.0199  140.5914  168.6722 C.3     1  UNL1        0.1073
     26 C         143.1201  141.5049  169.1249 C.3     1  UNL1        0.1715
     27 S         142.8175  142.6365  170.0619 S.O2    1  UNL1       -0.0083
     28 O         143.0274  143.8372  170.9362 O.2     1  UNL1       -0.1729
     29 O         144.2932  142.8354  169.8813 O.2     1  UNL1       -0.1729
     30 C         141.4147  142.8545  170.5462 C.3     1  UNL1        0.1523
     31 C         140.3144  141.9409  170.0934 C.3     1  UNL1        0.0425
     32 C         140.6171  140.8094  169.1565 C.3     1  UNL1        0.0724
     33 N         139.5169  139.8958  168.7037 N.3     1  UNL1       -0.3208
     34 H         139.8988  139.1892  168.0750 H       1  UNL1        0.1189
     35 H         138.8049  140.4376  168.2138 H       1  UNL1        0.1189
@<TRIPOS>BOND
     1    21    22    1
     2    22    14    1
     3    14    15   ar
     4    15    16   ar
     5    16    17    1
     6    16    18   ar
     7    18    19   ar
     8    19    12    1
     9    12     1    1
    10     1     2   ar
    11     2     3   ar
    12     3    23    1
    13    25    23    1
    14    25    26    1
    15    26    27    1
    16    27    28    2
    17    27    29    2
    18    27    30    1
    19    30    31    1
    20    31    32    1
    21    32    33    1
    22     3     4   ar
    23     4     5   ar
    24     5     6   ar
    25     6     7    1
    26     7     8   am
    27     7     9    2
    28    19    20   ar
    29    20    14   ar
    30     6     1   ar
    31    32    25    1
    32    12    13    1
    33    23    24    1
    34    33    34    1
    35    33    35    1
    36     8    10    1
    37     8    11    1
@<TRIPOS>MOLECULE
*****
 35 37 0 0 0
SMALL
GASTEIGER

@<TRIPOS>ATOM
      1 C         139.2631  141.1171  164.8873 C.ar    1  UNL1        0.0730
      2 C         139.8143  140.9898  166.2765 C.ar    1  UNL1        0.0322
      3 C         139.3361  139.8880  167.1751 C.ar    1  UNL1        0.0654
      4 C         138.3068  138.9135  166.6844 C.ar    1  UNL1        0.1133
      5 N         137.7555  139.0408  165.2952 N.ar    1  UNL1       -0.2367
      6 C         138.2337  140.1426  164.3966 C.ar    1  UNL1        0.1476
      7 C         137.6825  140.2699  163.0074 C.2     1  UNL1        0.2617
      8 N         137.6879  139.0856  162.0869 N.am    1  UNL1       -0.3240
      9 O         137.1258  141.5816  162.5386 O.2     1  UNL1       -0.2687
     10 H         138.0532  138.2247  162.3945 H       1  UNL1        0.1453
     11 H         137.3261  139.1691  161.1751 H       1  UNL1        0.1453
     12 N         139.7413  142.2188  163.9887 N.pl3   1  UNL1       -0.2965
     13 H         139.0923  142.8302  163.5713 H       1  UNL1        0.1537
     14 C         143.5219  141.3653  163.1349 C.ar    1  UNL1        0.1427
     15 C         144.1422  142.7294  163.2007 C.ar    1  UNL1        0.0517
     16 C         143.2957  143.9233  163.5292 C.ar    1  UNL1        0.0638
     17 C         143.9161  145.2874  163.5950 C.3     1  UNL1        0.0522
     18 N         141.8287  143.7531  163.7919 N.ar    1  UNL1       -0.2347
     19 C         141.2083  142.3890  163.7260 C.ar    1  UNL1        0.1348
     20 C         142.0549  141.1951  163.3975 C.ar    1  UNL1        0.0712
     21 C         143.8814  139.1566  161.8150 C.3     1  UNL1        0.2525
     22 O         144.3684  140.1714  162.8064 O.3     1  UNL1       -0.4713
     23 N         139.8873  139.7607  168.5643 N.pl3   1  UNL1       -0.3303
     24 H         139.6130  139.0073  169.1356 H       1  UNL1        0.1469
     25 C         140.8566  140.7813  169.0831 C.3     1  UNL1        0.1073
     26 C         140.3584  142.1111  169.5661 C.3     1  UNL1        0.1715
     27 S         141.3276  143.1317  170.0849 S.O2    1  UNL1       -0.0083
     28 O         141.8503  144.4144  170.6606 O.2     1  UNL1       -0.1729
     29 O         140.0418  143.8865  170.2491 O.2     1  UNL1       -0.1729
     30 C         142.7950  142.8224  170.1206 C.3     1  UNL1        0.1523
     31 C         143.2931  141.4925  169.6375 C.3     1  UNL1        0.0425
     32 C         142.3239  140.4720  169.1188 C.3     1  UNL1        0.0724
     33 N         142.8220  139.1421  168.6357 N.3     1  UNL1       -0.3208
     34 H         142.0330  138.5774  168.3210 H       1  UNL1        0.1189
     35 H         143.3017  138.6617  169.3970 H       1  UNL1        0.1189
@<TRIPOS>BOND
     1    21    22    1
     2    22    14    1
     3    14    15   ar
     4    15    16   ar
     5    16    17    1
     6    16    18   ar
     7    18    19   ar
     8    19    12    1
     9    12     1    1
    10     1     2   ar
    11     2     3   ar
    12     3    23    1
    13    25    23    1
    14    25    26    1
    15    26    27    1
    16    27    28    2
    17    27    29    2
    18    27    30    1
    19    30    31    1
    20    31    32    1
    21    32    33    1
    22     3     4   ar
    23     4     5   ar
    24     5     6   ar
    25     6     7    1
    26     7     8   am
    27     7     9    2
    28    19    20   ar
    29    20    14   ar
    30     6     1   ar
    31    32    25    1
    32    12    13    1
    33    23    24    1
    34    33    34    1
    35    33    35    1
    36     8    10    1
    37     8    11    1
@<TRIPOS>MOLECULE
*****
 35 37 0 0 0
SMALL
GASTEIGER

@<TRIPOS>ATOM
      1 C         141.6823  142.6758  164.3613 C.ar    1  UNL1        0.0730
      2 C         141.8924  142.4511  165.8295 C.ar    1  UNL1        0.0322
      3 C         143.2324  142.7242  166.4458 C.ar    1  UNL1        0.0654
      4 C         144.3623  143.2219  165.5940 C.ar    1  UNL1        0.1133
      5 N         144.1522  143.4466  164.1258 N.ar    1  UNL1       -0.2367
      6 C         142.8123  143.1735  163.5095 C.ar    1  UNL1        0.1476
      7 C         142.6022  143.3981  162.0414 C.2     1  UNL1        0.2617
      8 N         142.3598  144.7842  161.5219 N.am    1  UNL1       -0.3240
      9 O         142.6346  142.2366  161.0927 O.2     1  UNL1       -0.2687
     10 H         142.3385  145.5465  162.1445 H       1  UNL1        0.1453
     11 H         142.2219  144.9316  160.5583 H       1  UNL1        0.1453
     12 N         140.3424  142.4027  163.7450 N.pl3   1  UNL1       -0.2965
     13 H         139.7616  143.1514  163.4780 H       1  UNL1        0.1537
     14 C         138.8849  138.7848  164.4777 C.ar    1  UNL1        0.1427
     15 C         138.9771  138.1611  163.1167 C.ar    1  UNL1        0.0517
     16 C         139.5243  138.9512  161.9651 C.ar    1  UNL1        0.0638
     17 C         139.6165  138.3274  160.6040 C.3     1  UNL1        0.0522
     18 N         139.9794  140.3651  162.1745 N.ar    1  UNL1       -0.2347
     19 C         139.8873  140.9888  163.5355 C.ar    1  UNL1        0.1348
     20 C         139.3400  140.1986  164.6871 C.ar    1  UNL1        0.0712
     21 C         137.8463  138.7015  166.8577 C.3     1  UNL1        0.2525
     22 O         138.3377  137.9947  165.6293 O.3     1  UNL1       -0.4713
     23 N         143.4425  142.4996  167.9139 N.pl3   1  UNL1       -0.3303
     24 H         144.3421  142.5938  168.3025 H       1  UNL1        0.1469
     25 C         142.2818  142.1314  168.7899 C.3     1  UNL1        0.1073
     26 C         141.4074  143.2049  169.3669 C.3     1  UNL1        0.1715
     27 S         140.2468  142.8367  170.2429 S.O2    1  UNL1       -0.0083
     28 O         139.0400  142.9873  171.1210 O.2     1  UNL1       -0.1729
     29 O         140.1139  144.3307  170.2489 O.2     1  UNL1       -0.1729
     30 C         139.9606  141.3949  170.5419 C.3     1  UNL1        0.1523
     31 C         140.8350  140.3214  169.9649 C.3     1  UNL1        0.0425
     32 C         141.9956  140.6896  169.0889 C.3     1  UNL1        0.0724
     33 N         142.8701  139.6161  168.5119 N.3     1  UNL1       -0.3208
     34 H         143.6038  140.0427  167.9462 H       1  UNL1        0.1189
     35 H         142.3078  138.9966  167.9284 H       1  UNL1        0.1189
@<TRIPOS>BOND
     1    21    22    1
     2    22    14    1
     3    14    15   ar
     4    15    16   ar
     5    16    17    1
     6    16    18   ar
     7    18    19   ar
     8    19    12    1
     9    12     1    1
    10     1     2   ar
    11     2     3   ar
    12     3    23    1
    13    25    23    1
    14    25    26    1
    15    26    27    1
    16    27    28    2
    17    27    29    2
    18    27    30    1
    19    30    31    1
    20    31    32    1
    21    32    33    1
    22     3     4   ar
    23     4     5   ar
    24     5     6   ar
    25     6     7    1
    26     7     8   am
    27     7     9    2
    28    19    20   ar
    29    20    14   ar
    30     6     1   ar
    31    32    25    1
    32    12    13    1
    33    23    24    1
    34    33    34    1
    35    33    35    1
    36     8    10    1
    37     8    11    1
