@<TRIPOS>MOLECULE
*****
 44 47 0 0 0
SMALL
GASTEIGER

@<TRIPOS>ATOM
      1 C         140.6362  140.6132  163.1989 C.3     1  UNL1        0.0808
      2 C         140.3240  140.5399  164.6643 C.ar    1  UNL1        0.0375
      3 C         140.5934  141.7212  165.5485 C.ar    1  UNL1        0.0023
      4 C         140.2812  141.6479  167.0138 C.ar    1  UNL1        0.0181
      5 C         140.5506  142.8293  167.8980 C.ar    1  UNL1        0.0082
      6 C         140.2384  142.7560  169.3634 C.ar    1  UNL1        0.0347
      7 BR        140.5078  143.9373  170.2476 Br      1  UNL1       -0.0490
      8 C         139.6569  141.5013  169.9444 C.ar    1  UNL1        0.0082
      9 C         139.3875  140.3200  169.0602 C.ar    1  UNL1        0.0197
     10 C         139.6997  140.3933  167.5949 C.ar    1  UNL1        0.0844
     11 N         139.4303  139.2119  166.7107 N.ar    1  UNL1       -0.2119
     12 C         139.7425  139.2852  165.2453 C.ar    1  UNL1        0.2211
     13 O         139.4731  138.1039  164.3611 O.3     1  UNL1       -0.4563
     14 C         140.6077  137.1496  164.5891 C.3     1  UNL1        0.2542
     15 C         141.7664  139.8066  162.6316 C.ar    1  UNL1        0.0245
     16 C         143.0863  139.7610  163.3428 C.ar    1  UNL1        0.0200
     17 C         144.2165  138.9543  162.7755 C.ar    1  UNL1        0.1019
     18 N         144.0269  138.1932  161.4969 N.ar    1  UNL1       -0.2076
     19 C         142.7070  138.2388  160.7856 C.ar    1  UNL1        0.2598
     20 C         141.5768  139.0455  161.3530 C.ar    1  UNL1        0.1879
     21 O         142.5174  137.4778  159.5070 O.3     1  UNL1       -0.4541
     22 C         142.6415  138.1830  158.1890 C.3     1  UNL1        0.2543
     23 O         140.2569  139.0911  160.6417 O.3     1  UNL1       -0.4670
     24 C         139.2637  137.9832  160.8321 C.3     1  UNL1        0.2527
     25 C         139.8181  141.4932  162.3009 C.3     1  UNL1        0.1161
     26 O         138.6068  140.6545  162.5825 O.3     1  UNL1       -0.3820
     27 H         137.8469  141.0102  162.0957 H       1  UNL1        0.2107
     28 C         142.9000  143.9328  162.8487 C.ar    1  UNL1        0.1078
     29 C         141.6887  143.0940  163.1303 C.ar    1  UNL1        0.0236
     30 C         141.0294  142.3319  162.0193 C.ar    1  UNL1        0.0072
     31 C         141.5814  142.4085  160.6267 C.ar    1  UNL1        0.0323
     32 C         142.7927  143.2472  160.3451 C.ar    1  UNL1        0.1321
     33 N         143.4520  144.0094  161.4561 N.ar    1  UNL1       -0.2245
     34 N         143.3446  143.3238  158.9524 N.pl3   1  UNL1       -0.2897
     35 C         144.5971  142.5774  158.5999 C.3     1  UNL1        0.1136
     36 C         142.6442  144.1468  157.9122 C.3     1  UNL1        0.1136
     37 S         143.5594  144.6949  163.9598 S.3     1  UNL1       -0.0949
     38 C         143.9793  142.9439  165.8326 C.3     1  UNL1        0.0130
     39 C         144.4988  143.9938  164.8958 C.3     1  UNL1        0.0637
     40 C         139.0000  142.3732  161.4029 C.3     1  UNL1        0.0491
     41 C         137.9413  143.2619  161.9855 C.3     1  UNL1        0.0750
     42 N         138.3152  144.3224  162.9783 N.3     1  UNL1       -0.2702
     43 C         139.0721  145.5369  162.5289 C.3     1  UNL1        0.0897
     44 C         137.9321  144.1683  164.4204 C.3     1  UNL1        0.0897
@<TRIPOS>BOND
     1    38    39    1
     2    39    37    1
     3    37    28    1
     4    28    29   ar
     5    29    30   ar
     6    30    25    1
     7    25    26    1
     8    25    40    1
     9    40    41    1
    10    41    42    1
    11    42    43    1
    12    42    44    1
    13    25     1    1
    14     1     2    1
    15     2     3   ar
    16     3     4   ar
    17     4     5   ar
    18     5     6   ar
    19     6     7    1
    20     6     8   ar
    21     8     9   ar
    22     9    10   ar
    23    10    11   ar
    24    11    12   ar
    25    12    13    1
    26    13    14    1
    27     1    15    1
    28    15    16   ar
    29    16    17   ar
    30    17    18   ar
    31    18    19   ar
    32    19    21    1
    33    21    22    1
    34    19    20   ar
    35    20    23    1
    36    23    24    1
    37    30    31   ar
    38    31    32   ar
    39    32    34    1
    40    34    35    1
    41    34    36    1
    42    32    33   ar
    43    33    28   ar
    44    12     2   ar
    45    20    15   ar
    46    10     4   ar
    47    26    27    1
@<TRIPOS>MOLECULE
*****
 44 47 0 0 0
SMALL
GASTEIGER

@<TRIPOS>ATOM
      1 C         141.8327  140.9269  162.5501 C.3     1  UNL1        0.0808
      2 C         141.6849  140.6651  164.0197 C.ar    1  UNL1        0.0375
      3 C         141.3339  141.7882  164.9500 C.ar    1  UNL1        0.0023
      4 C         141.1862  141.5265  166.4195 C.ar    1  UNL1        0.0181
      5 C         140.8352  142.6496  167.3498 C.ar    1  UNL1        0.0082
      6 C         140.6874  142.3878  168.8195 C.ar    1  UNL1        0.0347
      7 BR        140.3364  143.5109  169.7497 Br      1  UNL1       -0.0490
      8 C         140.8907  141.0029  169.3587 C.ar    1  UNL1        0.0082
      9 C         141.2417  139.8798  168.4284 C.ar    1  UNL1        0.0197
     10 C         141.3895  140.1416  166.9589 C.ar    1  UNL1        0.0844
     11 N         141.7405  139.0185  166.0286 N.ar    1  UNL1       -0.2119
     12 C         141.8882  139.2803  164.5590 C.ar    1  UNL1        0.2211
     13 O         142.2392  138.1572  163.6287 O.3     1  UNL1       -0.4563
     14 C         141.0991  137.1855  163.7050 C.3     1  UNL1        0.2542
     15 C         141.0552  140.1103  161.5609 C.ar    1  UNL1        0.0245
     16 C         139.5709  139.9585  161.7156 C.ar    1  UNL1        0.0200
     17 C         138.7934  139.1418  160.7264 C.ar    1  UNL1        0.1019
     18 N         139.5001  138.4769  159.5825 N.ar    1  UNL1       -0.2076
     19 C         140.9844  138.6287  159.4278 C.ar    1  UNL1        0.2598
     20 C         141.7619  139.4454  160.4171 C.ar    1  UNL1        0.1879
     21 O         141.6911  137.9638  158.2840 O.3     1  UNL1       -0.4541
     22 C         140.9404  137.6352  157.0277 C.3     1  UNL1        0.2543
     23 O         143.2462  139.5972  160.2624 O.3     1  UNL1       -0.4670
     24 C         143.8056  140.3387  159.0846 C.3     1  UNL1        0.2527
     25 C         142.7579  142.0054  162.0697 C.3     1  UNL1        0.1161
     26 O         143.9321  141.2284  162.5870 O.3     1  UNL1       -0.3820
     27 H         144.7493  141.7185  162.4056 H       1  UNL1        0.2107
     28 C         139.3382  144.0171  161.9798 C.ar    1  UNL1        0.1078
     29 C         140.5123  143.2401  162.4971 C.ar    1  UNL1        0.0236
     30 C         141.5837  142.7824  161.5524 C.ar    1  UNL1        0.0072
     31 C         141.4810  143.1016  160.0904 C.ar    1  UNL1        0.0323
     32 C         140.3068  143.8786  159.5731 C.ar    1  UNL1        0.1321
     33 N         139.2354  144.3363  160.5178 N.ar    1  UNL1       -0.2245
     34 N         140.2040  144.1978  158.1110 N.pl3   1  UNL1       -0.2897
     35 C         139.9858  143.0963  157.1165 C.3     1  UNL1        0.1136
     36 C         140.3195  145.6184  157.6436 C.3     1  UNL1        0.1136
     37 S         138.2667  144.4749  162.9246 S.3     1  UNL1       -0.0949
     38 C         138.5987  144.8720  165.4706 C.3     1  UNL1        0.0130
     39 C         138.2400  143.9615  164.3338 C.3     1  UNL1        0.0637
     40 C         143.6832  143.0839  161.5893 C.3     1  UNL1        0.0491
     41 C         144.5638  143.8063  162.5655 C.3     1  UNL1        0.0750
     42 N         144.0232  144.2137  163.9041 N.3     1  UNL1       -0.2702
     43 C         142.9885  145.2956  163.9975 C.3     1  UNL1        0.0897
     44 C         144.5175  143.5390  165.1494 C.3     1  UNL1        0.0897
@<TRIPOS>BOND
     1    38    39    1
     2    39    37    1
     3    37    28    1
     4    28    29   ar
     5    29    30   ar
     6    30    25    1
     7    25    26    1
     8    25    40    1
     9    40    41    1
    10    41    42    1
    11    42    43    1
    12    42    44    1
    13    25     1    1
    14     1     2    1
    15     2     3   ar
    16     3     4   ar
    17     4     5   ar
    18     5     6   ar
    19     6     7    1
    20     6     8   ar
    21     8     9   ar
    22     9    10   ar
    23    10    11   ar
    24    11    12   ar
    25    12    13    1
    26    13    14    1
    27     1    15    1
    28    15    16   ar
    29    16    17   ar
    30    17    18   ar
    31    18    19   ar
    32    19    21    1
    33    21    22    1
    34    19    20   ar
    35    20    23    1
    36    23    24    1
    37    30    31   ar
    38    31    32   ar
    39    32    34    1
    40    34    35    1
    41    34    36    1
    42    32    33   ar
    43    33    28   ar
    44    12     2   ar
    45    20    15   ar
    46    10     4   ar
    47    26    27    1
@<TRIPOS>MOLECULE
*****
 44 47 0 0 0
SMALL
GASTEIGER

@<TRIPOS>ATOM
      1 C         141.7013  142.0997  162.5472 C.3     1  UNL1        0.0808
      2 C         142.0594  142.1036  164.0039 C.ar    1  UNL1        0.0375
      3 C         141.0418  141.6953  165.0275 C.ar    1  UNL1        0.0023
      4 C         141.3999  141.6992  166.4841 C.ar    1  UNL1        0.0181
      5 C         140.3822  141.2908  167.5077 C.ar    1  UNL1        0.0082
      6 C         140.7404  141.2948  168.9643 C.ar    1  UNL1        0.0347
      7 BR        139.7228  140.8864  169.9879 Br      1  UNL1       -0.0490
      8 C         142.1160  141.7070  169.3974 C.ar    1  UNL1        0.0082
      9 C         143.1336  142.1154  168.3738 C.ar    1  UNL1        0.0197
     10 C         142.7756  142.1115  166.9172 C.ar    1  UNL1        0.0844
     11 N         143.7932  142.5198  165.8936 N.ar    1  UNL1       -0.2119
     12 C         143.4351  142.5159  164.4369 C.ar    1  UNL1        0.2211
     13 O         144.4527  142.9242  163.4133 O.3     1  UNL1       -0.4563
     14 C         145.5700  141.9292  163.5213 C.3     1  UNL1        0.2542
     15 C         142.5590  141.3571  161.5660 C.ar    1  UNL1        0.0245
     16 C         142.7819  139.8828  161.7301 C.ar    1  UNL1        0.0200
     17 C         143.6396  139.1402  160.7489 C.ar    1  UNL1        0.1019
     18 N         144.2745  139.8718  159.6036 N.ar    1  UNL1       -0.2076
     19 C         144.0516  141.3461  159.4395 C.ar    1  UNL1        0.2598
     20 C         143.1938  142.0887  160.4208 C.ar    1  UNL1        0.1879
     21 O         144.6864  142.0777  158.2942 O.3     1  UNL1       -0.4541
     22 C         145.1490  141.3206  157.0848 C.3     1  UNL1        0.2543
     23 O         142.9710  143.5629  160.2567 O.3     1  UNL1       -0.4670
     24 C         142.1204  144.0722  159.1309 C.3     1  UNL1        0.2527
     25 C         140.4855  142.8384  162.0718 C.3     1  UNL1        0.1161
     26 O         141.0628  144.1222  162.5900 O.3     1  UNL1       -0.3820
     27 H         140.4460  144.8493  162.4119 H       1  UNL1        0.2107
     28 C         138.9809  139.1670  161.9889 C.ar    1  UNL1        0.1078
     29 C         139.5583  140.4508  162.5071 C.ar    1  UNL1        0.0236
     30 C         139.9081  141.5546  161.5536 C.ar    1  UNL1        0.0072
     31 C         139.6805  141.3747  160.0820 C.ar    1  UNL1        0.0323
     32 C         139.1031  140.0909  159.5638 C.ar    1  UNL1        0.1321
     33 N         138.7533  138.9871  160.5172 N.ar    1  UNL1       -0.2245
     34 N         138.8755  139.9110  158.0921 N.pl3   1  UNL1       -0.2897
     35 C         139.6289  138.8540  157.3404 C.3     1  UNL1        0.1136
     36 C         137.8946  140.7882  157.3721 C.3     1  UNL1        0.1136
     37 S         138.6311  138.0631  162.9424 S.3     1  UNL1       -0.0949
     38 C         140.4757  137.6814  164.7317 C.3     1  UNL1        0.0130
     39 C         139.0913  138.1300  164.3685 C.3     1  UNL1        0.0637
     40 C         139.2696  143.5772  161.5964 C.3     1  UNL1        0.0491
     41 C         138.4948  144.4382  162.5496 C.3     1  UNL1        0.0750
     42 N         138.3118  144.0037  163.9736 N.3     1  UNL1       -0.2702
     43 C         137.5669  142.7388  164.2819 C.3     1  UNL1        0.0897
     44 C         138.8737  144.8343  165.0892 C.3     1  UNL1        0.0897
@<TRIPOS>BOND
     1    38    39    1
     2    39    37    1
     3    37    28    1
     4    28    29   ar
     5    29    30   ar
     6    30    25    1
     7    25    26    1
     8    25    40    1
     9    40    41    1
    10    41    42    1
    11    42    43    1
    12    42    44    1
    13    25     1    1
    14     1     2    1
    15     2     3   ar
    16     3     4   ar
    17     4     5   ar
    18     5     6   ar
    19     6     7    1
    20     6     8   ar
    21     8     9   ar
    22     9    10   ar
    23    10    11   ar
    24    11    12   ar
    25    12    13    1
    26    13    14    1
    27     1    15    1
    28    15    16   ar
    29    16    17   ar
    30    17    18   ar
    31    18    19   ar
    32    19    21    1
    33    21    22    1
    34    19    20   ar
    35    20    23    1
    36    23    24    1
    37    30    31   ar
    38    31    32   ar
    39    32    34    1
    40    34    35    1
    41    34    36    1
    42    32    33   ar
    43    33    28   ar
    44    12     2   ar
    45    20    15   ar
    46    10     4   ar
    47    26    27    1
@<TRIPOS>MOLECULE
*****
 44 47 0 0 0
SMALL
GASTEIGER

@<TRIPOS>ATOM
      1 C         140.3388  141.3855  161.6380 C.3     1  UNL1        0.0808
      2 C         140.0534  140.9720  163.0514 C.ar    1  UNL1        0.0375
      3 C         141.0944  141.1650  164.1140 C.ar    1  UNL1        0.0023
      4 C         140.8092  140.7515  165.5273 C.ar    1  UNL1        0.0181
      5 C         141.8502  140.9444  166.5899 C.ar    1  UNL1        0.0082
      6 C         141.5648  140.5309  168.0033 C.ar    1  UNL1        0.0347
      7 BR        142.6058  140.7238  169.0659 Br      1  UNL1       -0.0490
      8 C         140.2385  139.9244  168.3541 C.ar    1  UNL1        0.0082
      9 C         139.1975  139.7315  167.2915 C.ar    1  UNL1        0.0197
     10 C         139.4828  140.1450  165.8782 C.ar    1  UNL1        0.0844
     11 N         138.4418  139.9520  164.8156 N.ar    1  UNL1       -0.2119
     12 C         138.7271  140.3655  163.4022 C.ar    1  UNL1        0.2211
     13 O         137.6861  140.1726  162.3396 O.3     1  UNL1       -0.4563
     14 C         137.7162  138.7139  161.9915 C.3     1  UNL1        0.2542
     15 C         140.5411  140.3437  160.5780 C.ar    1  UNL1        0.0245
     16 C         141.6765  139.3700  160.6904 C.ar    1  UNL1        0.0200
     17 C         141.8788  138.3281  159.6305 C.ar    1  UNL1        0.1019
     18 N         140.9456  138.2599  158.4580 N.ar    1  UNL1       -0.2076
     19 C         139.8101  139.2336  158.3457 C.ar    1  UNL1        0.2598
     20 C         139.6079  140.2755  159.4057 C.ar    1  UNL1        0.1879
     21 O         138.8769  139.1654  157.1733 O.3     1  UNL1       -0.4541
     22 C         139.3536  139.5727  155.8107 C.3     1  UNL1        0.2543
     23 O         138.4724  141.2492  159.2933 O.3     1  UNL1       -0.4670
     24 C         138.5138  142.3334  158.2574 C.3     1  UNL1        0.2527
     25 C         140.4219  142.8409  161.2847 C.3     1  UNL1        0.1161
     26 O         138.9675  143.0039  161.6139 O.3     1  UNL1       -0.3820
     27 H         138.7047  143.9264  161.4694 H       1  UNL1        0.2107
     28 C         144.3244  142.2673  161.7220 C.ar    1  UNL1        0.1078
     29 C         142.8701  142.4303  162.0512 C.ar    1  UNL1        0.0236
     30 C         141.8762  142.6780  160.9554 C.ar    1  UNL1        0.0072
     31 C         142.3367  142.7628  159.5304 C.ar    1  UNL1        0.0323
     32 C         143.7910  142.5999  159.2012 C.ar    1  UNL1        0.1321
     33 N         144.7849  142.3521  160.2970 N.ar    1  UNL1       -0.2245
     34 N         144.2515  142.6847  157.7761 N.pl3   1  UNL1       -0.2897
     35 C         145.6814  142.3910  157.4312 C.3     1  UNL1        0.1136
     36 C         143.2820  143.0632  156.6959 C.3     1  UNL1        0.1136
     37 S         145.3183  142.0196  162.8179 S.3     1  UNL1       -0.0949
     38 C         144.5286  139.6718  163.6015 C.3     1  UNL1        0.0130
     39 C         144.9909  141.0616  163.9248 C.3     1  UNL1        0.0637
     40 C         140.5049  144.2964  160.9313 C.3     1  UNL1        0.0491
     41 C         140.1039  145.3360  161.9355 C.3     1  UNL1        0.0750
     42 N         140.4846  145.1725  163.3772 N.3     1  UNL1       -0.2702
     43 C         141.9123  145.3515  163.8008 C.3     1  UNL1        0.0897
     44 C         139.4375  144.8299  164.3952 C.3     1  UNL1        0.0897
@<TRIPOS>BOND
     1    38    39    1
     2    39    37    1
     3    37    28    1
     4    28    29   ar
     5    29    30   ar
     6    30    25    1
     7    25    26    1
     8    25    40    1
     9    40    41    1
    10    41    42    1
    11    42    43    1
    12    42    44    1
    13    25     1    1
    14     1     2    1
    15     2     3   ar
    16     3     4   ar
    17     4     5   ar
    18     5     6   ar
    19     6     7    1
    20     6     8   ar
    21     8     9   ar
    22     9    10   ar
    23    10    11   ar
    24    11    12   ar
    25    12    13    1
    26    13    14    1
    27     1    15    1
    28    15    16   ar
    29    16    17   ar
    30    17    18   ar
    31    18    19   ar
    32    19    21    1
    33    21    22    1
    34    19    20   ar
    35    20    23    1
    36    23    24    1
    37    30    31   ar
    38    31    32   ar
    39    32    34    1
    40    34    35    1
    41    34    36    1
    42    32    33   ar
    43    33    28   ar
    44    12     2   ar
    45    20    15   ar
    46    10     4   ar
    47    26    27    1
@<TRIPOS>MOLECULE
*****
 44 47 0 0 0
SMALL
GASTEIGER

@<TRIPOS>ATOM
      1 C         141.6328  142.5347  162.6030 C.3     1  UNL1        0.0808
      2 C         141.9630  142.3308  164.0520 C.ar    1  UNL1        0.0375
      3 C         140.9026  141.8631  165.0042 C.ar    1  UNL1        0.0023
      4 C         141.2328  141.6592  166.4531 C.ar    1  UNL1        0.0181
      5 C         140.1724  141.1914  167.4054 C.ar    1  UNL1        0.0082
      6 C         140.5026  140.9875  168.8543 C.ar    1  UNL1        0.0347
      7 BR        139.4422  140.5197  169.8066 Br      1  UNL1       -0.0490
      8 C         141.8932  141.2513  169.3510 C.ar    1  UNL1        0.0082
      9 C         142.9536  141.7191  168.3987 C.ar    1  UNL1        0.0197
     10 C         142.6234  141.9230  166.9498 C.ar    1  UNL1        0.0844
     11 N         143.6838  142.3908  165.9976 N.ar    1  UNL1       -0.2119
     12 C         143.3536  142.5947  164.5486 C.ar    1  UNL1        0.2211
     13 O         144.4140  143.0624  163.5964 O.3     1  UNL1       -0.4563
     14 C         145.5023  142.0317  163.6508 C.3     1  UNL1        0.2542
     15 C         142.5362  141.9789  161.5424 C.ar    1  UNL1        0.0245
     16 C         143.1123  142.8868  160.4965 C.ar    1  UNL1        0.0200
     17 C         144.0157  142.3309  159.4360 C.ar    1  UNL1        0.1019
     18 N         144.3431  140.8671  159.4213 N.ar    1  UNL1       -0.2076
     19 C         143.7670  139.9592  160.4672 C.ar    1  UNL1        0.2598
     20 C         142.8636  140.5152  161.5278 C.ar    1  UNL1        0.1879
     21 O         144.0944  138.4955  160.4525 O.3     1  UNL1       -0.4541
     22 C         143.0687  137.5022  159.9930 C.3     1  UNL1        0.2543
     23 O         142.2875  139.6073  162.5737 O.3     1  UNL1       -0.4670
     24 C         143.1818  138.9960  163.6113 C.3     1  UNL1        0.2527
     25 C         140.3991  143.2945  162.2146 C.3     1  UNL1        0.1161
     26 O         140.9536  144.5272  162.8650 O.3     1  UNL1       -0.3820
     27 H         140.3210  145.2562  162.7684 H       1  UNL1        0.2107
     28 C         138.8408  139.6734  161.7579 C.ar    1  UNL1        0.1078
     29 C         139.3953  140.9061  162.4083 C.ar    1  UNL1        0.0236
     30 C         139.8446  142.0618  161.5643 C.ar    1  UNL1        0.0072
     31 C         139.7396  141.9848  160.0700 C.ar    1  UNL1        0.0323
     32 C         139.1851  140.7521  159.4197 C.ar    1  UNL1        0.1321
     33 N         138.7357  139.5963  160.2637 N.ar    1  UNL1       -0.2245
     34 N         139.0800  140.6751  157.9253 N.pl3   1  UNL1       -0.2897
     35 C         140.2857  140.3220  157.1059 C.3     1  UNL1        0.1136
     36 C         137.7692  140.9512  157.2504 C.3     1  UNL1        0.1136
     37 S         138.3914  138.5176  162.6020 S.3     1  UNL1       -0.0949
     38 C         139.7153  137.9718  164.7698 C.3     1  UNL1        0.0130
     39 C         139.4026  137.6836  163.3313 C.3     1  UNL1        0.0637
     40 C         139.1655  144.0543  161.8263 C.3     1  UNL1        0.0491
     41 C         138.3914  144.8095  162.8659 C.3     1  UNL1        0.0750
     42 N         138.1915  144.2173  164.2294 N.3     1  UNL1       -0.2702
     43 C         137.4660  142.9133  164.3818 C.3     1  UNL1        0.0897
     44 C         138.7171  144.9291  165.4407 C.3     1  UNL1        0.0897
@<TRIPOS>BOND
     1    38    39    1
     2    39    37    1
     3    37    28    1
     4    28    29   ar
     5    29    30   ar
     6    30    25    1
     7    25    26    1
     8    25    40    1
     9    40    41    1
    10    41    42    1
    11    42    43    1
    12    42    44    1
    13    25     1    1
    14     1     2    1
    15     2     3   ar
    16     3     4   ar
    17     4     5   ar
    18     5     6   ar
    19     6     7    1
    20     6     8   ar
    21     8     9   ar
    22     9    10   ar
    23    10    11   ar
    24    11    12   ar
    25    12    13    1
    26    13    14    1
    27     1    15    1
    28    15    16   ar
    29    16    17   ar
    30    17    18   ar
    31    18    19   ar
    32    19    21    1
    33    21    22    1
    34    19    20   ar
    35    20    23    1
    36    23    24    1
    37    30    31   ar
    38    31    32   ar
    39    32    34    1
    40    34    35    1
    41    34    36    1
    42    32    33   ar
    43    33    28   ar
    44    12     2   ar
    45    20    15   ar
    46    10     4   ar
    47    26    27    1
@<TRIPOS>MOLECULE
*****
 44 47 0 0 0
SMALL
GASTEIGER

@<TRIPOS>ATOM
      1 C         141.5520  140.5204  161.1380 C.3     1  UNL1        0.0808
      2 C         141.8951  140.1498  162.5505 C.ar    1  UNL1        0.0375
      3 C         141.7004  141.1454  163.6554 C.ar    1  UNL1        0.0023
      4 C         142.0435  140.7750  165.0678 C.ar    1  UNL1        0.0181
      5 C         141.8487  141.7705  166.1728 C.ar    1  UNL1        0.0082
      6 C         142.1918  141.4000  167.5853 C.ar    1  UNL1        0.0347
      7 BR        141.9971  142.3956  168.6902 Br      1  UNL1       -0.0490
      8 C         142.7297  140.0340  167.8928 C.ar    1  UNL1        0.0082
      9 C         142.9244  139.0384  166.7878 C.ar    1  UNL1        0.0197
     10 C         142.5813  139.4088  165.3754 C.ar    1  UNL1        0.0844
     11 N         142.7760  138.4132  164.2705 N.ar    1  UNL1       -0.2119
     12 C         142.4329  138.7838  162.8580 C.ar    1  UNL1        0.2211
     13 O         142.6277  137.7882  161.7530 O.3     1  UNL1       -0.4563
     14 C         144.0962  137.7919  161.4473 C.3     1  UNL1        0.2542
     15 C         142.6291  140.9789  160.2002 C.ar    1  UNL1        0.0245
     16 C         143.3944  142.2352  160.4937 C.ar    1  UNL1        0.0200
     17 C         144.4715  142.6937  159.5559 C.ar    1  UNL1        0.1019
     18 N         144.7833  141.8960  158.3244 N.ar    1  UNL1       -0.2076
     19 C         144.0181  140.6398  158.0308 C.ar    1  UNL1        0.2598
     20 C         142.9409  140.1812  158.9687 C.ar    1  UNL1        0.1879
     21 O         144.3299  139.8421  156.7994 O.3     1  UNL1       -0.4541
     22 C         145.4064  140.3011  155.8612 C.3     1  UNL1        0.2543
     23 O         142.1756  138.9250  158.6752 O.3     1  UNL1       -0.4670
     24 C         141.2069  138.8871  157.5305 C.3     1  UNL1        0.2527
     25 C         140.1318  140.4323  160.6634 C.3     1  UNL1        0.1161
     26 O         140.1729  138.9408  160.8172 O.3     1  UNL1       -0.3820
     27 H         139.3159  138.5656  160.5610 H       1  UNL1        0.2107
     28 C         140.0665  144.2953  161.5704 C.ar    1  UNL1        0.1078
     29 C         140.1076  142.8038  161.7242 C.ar    1  UNL1        0.0236
     30 C         140.0907  141.9238  160.5096 C.ar    1  UNL1        0.0072
     31 C         140.0328  142.5354  159.1412 C.ar    1  UNL1        0.0323
     32 C         139.9917  144.0269  158.9874 C.ar    1  UNL1        0.1321
     33 N         140.0086  144.9069  160.2020 N.ar    1  UNL1       -0.2245
     34 N         139.9337  144.6384  157.6189 N.pl3   1  UNL1       -0.2897
     35 C         139.4423  143.8287  156.4558 C.3     1  UNL1        0.1136
     36 C         140.3671  146.0597  157.4135 C.3     1  UNL1        0.1136
     37 S         140.0834  145.1753  162.7851 S.3     1  UNL1       -0.0949
     38 C         142.5150  144.9110  163.6610 C.3     1  UNL1        0.0130
     39 C         141.0357  144.8862  163.9074 C.3     1  UNL1        0.0637
     40 C         138.7116  140.3442  160.1888 C.3     1  UNL1        0.0491
     41 C         137.6349  139.8828  161.1259 C.3     1  UNL1        0.0750
     42 N         137.7512  140.1585  162.5957 N.3     1  UNL1       -0.2702
     43 C         138.3644  139.1348  163.5046 C.3     1  UNL1        0.0897
     44 C         137.2542  141.4579  163.1567 C.3     1  UNL1        0.0897
@<TRIPOS>BOND
     1    38    39    1
     2    39    37    1
     3    37    28    1
     4    28    29   ar
     5    29    30   ar
     6    30    25    1
     7    25    26    1
     8    25    40    1
     9    40    41    1
    10    41    42    1
    11    42    43    1
    12    42    44    1
    13    25     1    1
    14     1     2    1
    15     2     3   ar
    16     3     4   ar
    17     4     5   ar
    18     5     6   ar
    19     6     7    1
    20     6     8   ar
    21     8     9   ar
    22     9    10   ar
    23    10    11   ar
    24    11    12   ar
    25    12    13    1
    26    13    14    1
    27     1    15    1
    28    15    16   ar
    29    16    17   ar
    30    17    18   ar
    31    18    19   ar
    32    19    21    1
    33    21    22    1
    34    19    20   ar
    35    20    23    1
    36    23    24    1
    37    30    31   ar
    38    31    32   ar
    39    32    34    1
    40    34    35    1
    41    34    36    1
    42    32    33   ar
    43    33    28   ar
    44    12     2   ar
    45    20    15   ar
    46    10     4   ar
    47    26    27    1
@<TRIPOS>MOLECULE
*****
 44 47 0 0 0
SMALL
GASTEIGER

@<TRIPOS>ATOM
      1 C         139.1959  140.7846  164.5712 C.3     1  UNL1        0.0808
      2 C         139.4160  140.7302  166.0540 C.ar    1  UNL1        0.0375
      3 C         140.4008  141.6587  166.7006 C.ar    1  UNL1        0.0023
      4 C         140.6209  141.6042  168.1834 C.ar    1  UNL1        0.0181
      5 C         141.6056  142.5328  168.8300 C.ar    1  UNL1        0.0082
      6 C         141.8257  142.4783  170.3128 C.ar    1  UNL1        0.0347
      7 BR        142.8104  143.4068  170.9595 Br      1  UNL1       -0.0490
      8 C         141.0610  141.4953  171.1489 C.ar    1  UNL1        0.0082
      9 C         140.0763  140.5668  170.5023 C.ar    1  UNL1        0.0197
     10 C         139.8562  140.6213  169.0195 C.ar    1  UNL1        0.0844
     11 N         138.8715  139.6927  168.3729 N.ar    1  UNL1       -0.2119
     12 C         138.6514  139.7472  166.8901 C.ar    1  UNL1        0.2211
     13 O         137.6666  138.8187  166.2434 O.3     1  UNL1       -0.4563
     14 C         137.1958  137.8952  167.3276 C.3     1  UNL1        0.2542
     15 C         139.0187  142.1079  163.8874 C.ar    1  UNL1        0.0245
     16 C         137.6430  142.6733  163.6930 C.ar    1  UNL1        0.0200
     17 C         137.4657  143.9965  163.0092 C.ar    1  UNL1        0.1019
     18 N         138.6641  144.7544  162.5198 N.ar    1  UNL1       -0.2076
     19 C         140.0398  144.1889  162.7141 C.ar    1  UNL1        0.2598
     20 C         140.2171  142.8656  163.3980 C.ar    1  UNL1        0.1879
     21 O         141.2382  144.9467  162.2248 O.3     1  UNL1       -0.4541
     22 C         141.9002  144.5531  160.9376 C.3     1  UNL1        0.2543
     23 O         141.5927  142.3002  163.5924 O.3     1  UNL1       -0.4670
     24 C         142.5789  143.0118  164.4707 C.3     1  UNL1        0.2527
     25 C         139.1532  139.5158  163.7722 C.3     1  UNL1        0.1161
     26 O         137.6671  139.6579  163.6262 O.3     1  UNL1       -0.3820
     27 H         137.3207  138.9149  163.1077 H       1  UNL1        0.2107
     28 C         142.7141  138.8267  165.3830 C.ar    1  UNL1        0.1078
     29 C         141.2280  138.9688  165.2370 C.ar    1  UNL1        0.0236
     30 C         140.6393  139.3738  163.9182 C.ar    1  UNL1        0.0072
     31 C         141.5366  139.6368  162.7454 C.ar    1  UNL1        0.0323
     32 C         143.0227  139.4948  162.8914 C.ar    1  UNL1        0.1321
     33 N         143.6115  139.0898  164.2102 N.ar    1  UNL1       -0.2245
     34 N         143.9201  139.7579  161.7185 N.pl3   1  UNL1       -0.2897
     35 C         144.0701  138.7239  160.6422 C.3     1  UNL1        0.1136
     36 C         144.6674  141.0548  161.6219 C.3     1  UNL1        0.1136
     37 S         143.3029  138.4217  166.7018 S.3     1  UNL1       -0.0949
     38 C         142.9288  138.5322  169.2705 C.3     1  UNL1        0.0130
     39 C         142.9937  139.2152  167.9366 C.3     1  UNL1        0.0637
     40 C         139.1104  138.2470  162.9733 C.3     1  UNL1        0.0491
     41 C         138.2399  138.1569  161.7549 C.3     1  UNL1        0.0750
     42 N         138.5696  138.9666  160.5361 N.3     1  UNL1       -0.2702
     43 C         137.7233  140.1498  160.1702 C.3     1  UNL1        0.0897
     44 C         139.7457  138.5932  159.6831 C.3     1  UNL1        0.0897
@<TRIPOS>BOND
     1    38    39    1
     2    39    37    1
     3    37    28    1
     4    28    29   ar
     5    29    30   ar
     6    30    25    1
     7    25    26    1
     8    25    40    1
     9    40    41    1
    10    41    42    1
    11    42    43    1
    12    42    44    1
    13    25     1    1
    14     1     2    1
    15     2     3   ar
    16     3     4   ar
    17     4     5   ar
    18     5     6   ar
    19     6     7    1
    20     6     8   ar
    21     8     9   ar
    22     9    10   ar
    23    10    11   ar
    24    11    12   ar
    25    12    13    1
    26    13    14    1
    27     1    15    1
    28    15    16   ar
    29    16    17   ar
    30    17    18   ar
    31    18    19   ar
    32    19    21    1
    33    21    22    1
    34    19    20   ar
    35    20    23    1
    36    23    24    1
    37    30    31   ar
    38    31    32   ar
    39    32    34    1
    40    34    35    1
    41    34    36    1
    42    32    33   ar
    43    33    28   ar
    44    12     2   ar
    45    20    15   ar
    46    10     4   ar
    47    26    27    1
@<TRIPOS>MOLECULE
*****
 44 47 0 0 0
SMALL
GASTEIGER

@<TRIPOS>ATOM
      1 C         139.2985  140.7139  164.5186 C.3     1  UNL1        0.0808
      2 C         139.4956  140.6812  166.0052 C.ar    1  UNL1        0.0375
      3 C         140.4814  141.6088  166.6517 C.ar    1  UNL1        0.0023
      4 C         140.6785  141.5761  168.1383 C.ar    1  UNL1        0.0181
      5 C         141.6642  142.5037  168.7847 C.ar    1  UNL1        0.0082
      6 C         141.8614  142.4709  170.2714 C.ar    1  UNL1        0.0347
      7 BR        142.8471  143.3985  170.9179 Br      1  UNL1       -0.0490
      8 C         141.0727  141.5106  171.1116 C.ar    1  UNL1        0.0082
      9 C         140.0870  140.5831  170.4651 C.ar    1  UNL1        0.0197
     10 C         139.8899  140.6158  168.9785 C.ar    1  UNL1        0.0844
     11 N         138.9041  139.6882  168.3321 N.ar    1  UNL1       -0.2119
     12 C         138.7070  139.7209  166.8454 C.ar    1  UNL1        0.2211
     13 O         137.7213  138.7933  166.1989 O.3     1  UNL1       -0.4563
     14 C         137.2236  137.8930  167.2905 C.3     1  UNL1        0.2542
     15 C         139.1059  142.0252  163.8162 C.ar    1  UNL1        0.0245
     16 C         137.7239  142.5735  163.6171 C.ar    1  UNL1        0.0200
     17 C         137.5313  143.8848  162.9148 C.ar    1  UNL1        0.1019
     18 N         138.7206  144.6479  162.4115 N.ar    1  UNL1       -0.2076
     19 C         140.1026  144.0997  162.6107 C.ar    1  UNL1        0.2598
     20 C         140.2952  142.7883  163.3131 C.ar    1  UNL1        0.1879
     21 O         141.2919  144.8628  162.1075 O.3     1  UNL1       -0.4541
     22 C         141.7497  144.6886  160.6898 C.3     1  UNL1        0.2543
     23 O         141.6771  142.2401  163.5122 O.3     1  UNL1       -0.4670
     24 C         142.6641  142.9845  164.3618 C.3     1  UNL1        0.2527
     25 C         139.2940  139.4353  163.7343 C.3     1  UNL1        0.1161
     26 O         137.8065  139.5401  163.5719 O.3     1  UNL1       -0.3820
     27 H         137.4832  138.7831  163.0588 H       1  UNL1        0.2107
     28 C         143.1723  139.5087  162.8953 C.ar    1  UNL1        0.1078
     29 C         141.6848  139.6135  162.7330 C.ar    1  UNL1        0.0236
     30 C         140.7815  139.3305  163.8966 C.ar    1  UNL1        0.0072
     31 C         141.3658  138.9428  165.2226 C.ar    1  UNL1        0.0323
     32 C         142.8533  138.8381  165.3849 C.ar    1  UNL1        0.1321
     33 N         143.7566  139.1210  164.2213 N.ar    1  UNL1       -0.2245
     34 N         143.4376  138.4503  166.7110 N.pl3   1  UNL1       -0.2897
     35 C         144.5670  137.4651  166.7737 C.3     1  UNL1        0.1136
     36 C         142.8925  139.0477  167.9742 C.3     1  UNL1        0.1136
     37 S         144.0755  139.7917  161.7316 S.3     1  UNL1       -0.0949
     38 C         144.7658  142.2638  161.3289 C.3     1  UNL1        0.0130
     39 C         143.9309  141.0723  160.9640 C.3     1  UNL1        0.0637
     40 C         139.2896  138.1567  162.9500 C.3     1  UNL1        0.0491
     41 C         138.4031  138.0172  161.7480 C.3     1  UNL1        0.0750
     42 N         138.6391  138.8728  160.5387 N.3     1  UNL1       -0.2702
     43 C         137.6796  139.9753  160.2012 C.3     1  UNL1        0.0897
     44 C         139.8346  138.6260  159.6670 C.3     1  UNL1        0.0897
@<TRIPOS>BOND
     1    38    39    1
     2    39    37    1
     3    37    28    1
     4    28    29   ar
     5    29    30   ar
     6    30    25    1
     7    25    26    1
     8    25    40    1
     9    40    41    1
    10    41    42    1
    11    42    43    1
    12    42    44    1
    13    25     1    1
    14     1     2    1
    15     2     3   ar
    16     3     4   ar
    17     4     5   ar
    18     5     6   ar
    19     6     7    1
    20     6     8   ar
    21     8     9   ar
    22     9    10   ar
    23    10    11   ar
    24    11    12   ar
    25    12    13    1
    26    13    14    1
    27     1    15    1
    28    15    16   ar
    29    16    17   ar
    30    17    18   ar
    31    18    19   ar
    32    19    21    1
    33    21    22    1
    34    19    20   ar
    35    20    23    1
    36    23    24    1
    37    30    31   ar
    38    31    32   ar
    39    32    34    1
    40    34    35    1
    41    34    36    1
    42    32    33   ar
    43    33    28   ar
    44    12     2   ar
    45    20    15   ar
    46    10     4   ar
    47    26    27    1
@<TRIPOS>MOLECULE
*****
 44 47 0 0 0
SMALL
GASTEIGER

@<TRIPOS>ATOM
      1 C         141.7634  141.5337  159.2653 C.3     1  UNL1        0.0808
      2 C         141.4789  140.5088  160.3231 C.ar    1  UNL1        0.0375
      3 C         142.3238  140.4545  161.5613 C.ar    1  UNL1        0.0023
      4 C         142.0394  139.4297  162.6190 C.ar    1  UNL1        0.0181
      5 C         142.8842  139.3754  163.8572 C.ar    1  UNL1        0.0082
      6 C         142.5997  138.3505  164.9150 C.ar    1  UNL1        0.0347
      7 BR        143.4446  138.2962  166.1532 Br      1  UNL1       -0.0490
      8 C         141.4704  137.3799  164.7344 C.ar    1  UNL1        0.0082
      9 C         140.6256  137.4342  163.4962 C.ar    1  UNL1        0.0197
     10 C         140.9100  138.4590  162.4385 C.ar    1  UNL1        0.0844
     11 N         140.0651  138.5133  161.2003 N.ar    1  UNL1       -0.2119
     12 C         140.3496  139.5382  160.1425 C.ar    1  UNL1        0.2211
     13 O         139.5047  139.5925  158.9043 O.3     1  UNL1       -0.4563
     14 C         138.1356  140.0068  159.3558 C.3     1  UNL1        0.2542
     15 C         143.0822  141.5279  158.5508 C.ar    1  UNL1        0.0245
     16 C         144.0799  142.6179  158.8089 C.ar    1  UNL1        0.0200
     17 C         145.3987  142.6122  158.0944 C.ar    1  UNL1        0.1019
     18 N         145.7200  141.5163  157.1217 N.ar    1  UNL1       -0.2076
     19 C         144.7224  140.4263  156.8637 C.ar    1  UNL1        0.2598
     20 C         143.4035  140.4321  157.5782 C.ar    1  UNL1        0.1879
     21 O         145.0436  139.3304  155.8911 O.3     1  UNL1       -0.4541
     22 C         145.0263  139.6072  154.4170 C.3     1  UNL1        0.2543
     23 O         142.4059  139.3421  157.3202 O.3     1  UNL1       -0.4670
     24 C         142.6616  137.9550  157.8310 C.3     1  UNL1        0.2527
     25 C         140.7290  142.5643  158.9222 C.3     1  UNL1        0.1161
     26 O         140.7302  142.0916  157.4986 O.3     1  UNL1       -0.3820
     27 H         140.0998  142.6181  156.9826 H       1  UNL1        0.2107
     28 C         141.9424  144.1789  162.3384 C.ar    1  UNL1        0.1078
     29 C         141.9436  143.7062  160.9149 C.ar    1  UNL1        0.0236
     30 C         140.7278  143.0371  160.3458 C.ar    1  UNL1        0.0072
     31 C         139.5107  142.8407  161.2002 C.ar    1  UNL1        0.0323
     32 C         139.5095  143.3134  162.6237 C.ar    1  UNL1        0.1321
     33 N         140.7253  143.9825  163.1929 N.ar    1  UNL1       -0.2245
     34 N         138.2923  143.1170  163.4782 N.pl3   1  UNL1       -0.2897
     35 C         137.9798  144.0926  164.5739 C.3     1  UNL1        0.1136
     36 C         137.3877  141.9451  163.2369 C.3     1  UNL1        0.1136
     37 S         143.1584  144.8480  162.9075 S.3     1  UNL1       -0.0949
     38 C         144.5359  142.7383  163.5410 C.3     1  UNL1        0.0130
     39 C         144.0351  144.1118  163.8767 C.3     1  UNL1        0.0637
     40 C         139.6946  143.5950  158.5790 C.3     1  UNL1        0.0491
     41 C         139.7486  144.3004  157.2563 C.3     1  UNL1        0.0750
     42 N         140.4019  145.6465  157.1504 N.3     1  UNL1       -0.2702
     43 C         141.8039  145.8409  157.6467 C.3     1  UNL1        0.0897
     44 C         139.6530  146.7983  156.5480 C.3     1  UNL1        0.0897
@<TRIPOS>BOND
     1    38    39    1
     2    39    37    1
     3    37    28    1
     4    28    29   ar
     5    29    30   ar
     6    30    25    1
     7    25    26    1
     8    25    40    1
     9    40    41    1
    10    41    42    1
    11    42    43    1
    12    42    44    1
    13    25     1    1
    14     1     2    1
    15     2     3   ar
    16     3     4   ar
    17     4     5   ar
    18     5     6   ar
    19     6     7    1
    20     6     8   ar
    21     8     9   ar
    22     9    10   ar
    23    10    11   ar
    24    11    12   ar
    25    12    13    1
    26    13    14    1
    27     1    15    1
    28    15    16   ar
    29    16    17   ar
    30    17    18   ar
    31    18    19   ar
    32    19    21    1
    33    21    22    1
    34    19    20   ar
    35    20    23    1
    36    23    24    1
    37    30    31   ar
    38    31    32   ar
    39    32    34    1
    40    34    35    1
    41    34    36    1
    42    32    33   ar
    43    33    28   ar
    44    12     2   ar
    45    20    15   ar
    46    10     4   ar
    47    26    27    1
