@<TRIPOS>MOLECULE
*****
 36 40 0 0 0
SMALL
GASTEIGER

@<TRIPOS>ATOM
      1 N         142.4374  140.5046  160.7547 N.3     1  UNL1       -0.2689
      2 C         141.6845  141.5154  161.5679 C.3     1  UNL1        0.0724
      3 C         141.6714  141.4144  163.0644 C.3     1  UNL1        0.0175
      4 C         142.4111  140.3026  163.7477 C.3     1  UNL1        0.0060
      5 C         143.1639  139.2918  162.9344 C.3     1  UNL1        0.0175
      6 C         143.1771  139.3928  161.4379 C.3     1  UNL1        0.0724
      7 C         141.6582  141.3134  164.5610 C.3     1  UNL1        0.0216
      8 C         141.6450  141.2124  166.0575 C.3     1  UNL1        0.0934
      9 N         142.3847  140.1006  166.7408 N.am    1  UNL1       -0.2789
     10 C         142.3715  139.9997  168.2374 C.2     1  UNL1        0.2382
     11 O         143.1112  138.8879  168.9206 O.2     1  UNL1       -0.2740
     12 C         143.1376  139.0898  165.9275 C.3     1  UNL1        0.0934
     13 C         143.1507  139.1908  164.4309 C.3     1  UNL1        0.0216
     14 C         141.6187  141.0105  169.0506 C.3     1  UNL1        0.1767
     15 C         140.2064  140.7322  169.4724 C.2     1  UNL1       -0.0068
     16 C         139.4535  141.7430  170.2857 C.2     1  UNL1        0.0143
     17 C         140.1130  143.0321  170.6772 C.2     1  UNL1        0.0883
     18 N         141.5253  143.3104  170.2554 N.am    1  UNL1       -0.1772
     19 C         142.2782  142.2996  169.4421 C.2     1  UNL1        0.2581
     20 O         143.6905  142.5778  169.0203 O.2     1  UNL1       -0.2721
     21 C         142.4506  140.6055  159.2581 C.3     1  UNL1        0.1022
     22 C         140.4739  139.1230  158.4552 C.ar    1  UNL1        0.1427
     23 C         139.9560  137.9879  157.6223 C.ar    1  UNL1        0.0372
     24 C         140.8971  137.2006  156.7594 C.ar    1  UNL1        0.0031
     25 C         142.3559  137.5482  156.7295 C.ar    1  UNL1       -0.0001
     26 C         142.8738  138.6832  157.5623 C.ar    1  UNL1        0.0001
     27 C         141.9327  139.4706  158.4252 C.ar    1  UNL1        0.0284
     28 O         139.5328  139.9103  159.3180 O.3     1  UNL1       -0.4507
     29 C         138.3204  140.2573  161.5894 C.ar    1  UNL1        0.1730
     30 C         138.0164  139.7950  162.9837 C.ar    1  UNL1        0.0401
     31 C         138.6210  138.5234  163.5007 C.ar    1  UNL1        0.0033
     32 C         139.5296  137.7140  162.6235 C.ar    1  UNL1        0.0033
     33 C         139.8336  138.1763  161.2293 C.ar    1  UNL1        0.0406
     34 C         139.2289  139.4480  160.7122 C.ar    1  UNL1        0.1789
     35 C         138.0325  142.8351  161.7384 C.3     1  UNL1        0.2526
     36 O         137.7157  141.5290  161.0724 O.3     1  UNL1       -0.4684
@<TRIPOS>BOND
     1    35    36    1
     2    36    29    1
     3    29    30   ar
     4    30    31   ar
     5    31    32   ar
     6    32    33   ar
     7    33    34   ar
     8    34    28    1
     9    28    22    1
    10    22    23   ar
    11    23    24   ar
    12    24    25   ar
    13    25    26   ar
    14    26    27   ar
    15    27    21    1
    16    21     1    1
    17     1     2    1
    18     2     3    1
    19     3     4    1
    20     4     5    1
    21     5     6    1
    22     4     7    1
    23     7     8    1
    24     8     9    1
    25     9    10   am
    26    10    11    2
    27    10    14    1
    28    14    15    1
    29    15    16    2
    30    16    17    1
    31    17    18    2
    32    18    19    1
    33    19    20    2
    34     9    12    1
    35    12    13    1
    36    34    29   ar
    37    27    22   ar
    38     6     1    1
    39    19    14    1
    40    13     4    1
@<TRIPOS>MOLECULE
*****
 36 40 0 0 0
SMALL
GASTEIGER

@<TRIPOS>ATOM
      1 N         141.8528  140.5119  160.7182 N.3     1  UNL1       -0.2689
      2 C         141.0499  141.4483  161.5717 C.3     1  UNL1        0.0724
      3 C         141.1196  141.3468  163.0666 C.3     1  UNL1        0.0175
      4 C         141.9922  140.3089  163.7080 C.3     1  UNL1        0.0060
      5 C         142.7950  139.3725  162.8545 C.3     1  UNL1        0.0175
      6 C         142.7253  139.4740  161.3596 C.3     1  UNL1        0.0724
      7 C         141.1893  141.2454  164.5616 C.3     1  UNL1        0.0216
      8 C         141.2590  141.1439  166.0565 C.3     1  UNL1        0.0934
      9 N         142.1315  140.1059  166.6979 N.am    1  UNL1       -0.2789
     10 C         142.2012  140.0045  168.1929 C.2     1  UNL1        0.2382
     11 O         143.0737  138.9665  168.8343 O.2     1  UNL1       -0.2740
     12 C         142.9344  139.1695  165.8444 C.3     1  UNL1        0.0934
     13 C         142.8647  139.2710  164.3494 C.3     1  UNL1        0.0216
     14 C         141.3983  140.9409  169.0464 C.3     1  UNL1        0.1767
     15 C         140.0177  140.5557  169.4885 C.2     1  UNL1       -0.0068
     16 C         139.2149  141.4921  170.3420 C.2     1  UNL1        0.0143
     17 C         139.7927  142.8138  170.7534 C.2     1  UNL1        0.0883
     18 N         141.1733  143.1991  170.3113 N.am    1  UNL1       -0.1772
     19 C         141.9761  142.2626  169.4578 C.2     1  UNL1        0.2581
     20 O         143.3568  142.6478  169.0157 O.2     1  UNL1       -0.2721
     21 C         141.7831  140.6134  159.2232 C.3     1  UNL1        0.1022
     22 C         143.8256  142.1298  158.6954 C.ar    1  UNL1        0.1427
     23 C         145.0697  142.4042  157.9034 C.ar    1  UNL1        0.0372
     24 C         145.5152  141.4365  156.8475 C.ar    1  UNL1        0.0031
     25 C         144.7167  140.1945  156.5834 C.ar    1  UNL1       -0.0001
     26 C         143.4727  139.9201  157.3753 C.ar    1  UNL1        0.0001
     27 C         143.0271  140.8878  158.4313 C.ar    1  UNL1        0.0284
     28 O         143.3800  143.0975  159.7513 O.3     1  UNL1       -0.4507
     29 C         143.4291  143.9134  162.2175 C.ar    1  UNL1        0.1730
     30 C         143.9818  143.8127  163.6083 C.ar    1  UNL1        0.0401
     31 C         145.0380  142.7955  163.9238 C.ar    1  UNL1        0.0033
     32 C         145.5416  141.8788  162.8485 C.ar    1  UNL1        0.0033
     33 C         144.9890  141.9795  161.4577 C.ar    1  UNL1        0.0406
     34 C         143.9327  142.9968  161.1422 C.ar    1  UNL1        0.1789
     35 C         141.2569  145.1790  162.8729 C.3     1  UNL1        0.2526
     36 O         142.3729  144.9307  161.9019 O.3     1  UNL1       -0.4684
@<TRIPOS>BOND
     1    35    36    1
     2    36    29    1
     3    29    30   ar
     4    30    31   ar
     5    31    32   ar
     6    32    33   ar
     7    33    34   ar
     8    34    28    1
     9    28    22    1
    10    22    23   ar
    11    23    24   ar
    12    24    25   ar
    13    25    26   ar
    14    26    27   ar
    15    27    21    1
    16    21     1    1
    17     1     2    1
    18     2     3    1
    19     3     4    1
    20     4     5    1
    21     5     6    1
    22     4     7    1
    23     7     8    1
    24     8     9    1
    25     9    10   am
    26    10    11    2
    27    10    14    1
    28    14    15    1
    29    15    16    2
    30    16    17    1
    31    17    18    2
    32    18    19    1
    33    19    20    2
    34     9    12    1
    35    12    13    1
    36    34    29   ar
    37    27    22   ar
    38     6     1    1
    39    19    14    1
    40    13     4    1
@<TRIPOS>MOLECULE
*****
 36 40 0 0 0
SMALL
GASTEIGER

@<TRIPOS>ATOM
      1 N         138.9784  141.5572  160.0659 N.3     1  UNL1       -0.2689
      2 C         138.4252  140.2904  159.4836 C.3     1  UNL1        0.0724
      3 C         139.3089  139.3888  158.6737 C.3     1  UNL1        0.0175
      4 C         140.7458  139.7540  158.4459 C.3     1  UNL1        0.0060
      5 C         141.2990  141.0208  159.0282 C.3     1  UNL1        0.0175
      6 C         140.4153  141.9224  159.8381 C.3     1  UNL1        0.0724
      7 C         140.1926  138.4871  157.8636 C.3     1  UNL1        0.0216
      8 C         141.0763  137.5855  157.0537 C.3     1  UNL1        0.0934
      9 N         142.5133  137.9507  156.8259 N.am    1  UNL1       -0.2789
     10 C         143.3970  137.0490  156.0159 C.2     1  UNL1        0.2382
     11 O         144.8339  137.4142  155.7881 O.2     1  UNL1       -0.2740
     12 C         143.0665  139.2175  157.4081 C.3     1  UNL1        0.0934
     13 C         142.1827  140.1192  158.2182 C.3     1  UNL1        0.0216
     14 C         142.8438  135.7822  155.4336 C.3     1  UNL1        0.1767
     15 C         142.3223  135.7682  154.0273 C.2     1  UNL1       -0.0068
     16 C         141.7691  134.5014  153.4451 C.2     1  UNL1        0.0143
     17 C         141.7373  133.2484  154.2692 C.2     1  UNL1        0.0883
     18 N         142.2588  133.2624  155.6756 N.am    1  UNL1       -0.1772
     19 C         142.8120  134.5293  156.2578 C.2     1  UNL1        0.2581
     20 O         143.3335  134.5432  157.6641 O.2     1  UNL1       -0.2721
     21 C         138.0947  142.4589  160.8759 C.3     1  UNL1        0.1022
     22 C         138.5386  141.8428  163.3605 C.ar    1  UNL1        0.1427
     23 C         138.9477  142.2469  164.7460 C.ar    1  UNL1        0.0372
     24 C         139.3218  143.6710  165.0322 C.ar    1  UNL1        0.0031
     25 C         139.2870  144.6910  163.9330 C.ar    1  UNL1       -0.0001
     26 C         138.8779  144.2870  162.5476 C.ar    1  UNL1        0.0001
     27 C         138.5037  142.8629  162.2613 C.ar    1  UNL1        0.0284
     28 O         138.1644  140.4187  163.0743 O.3     1  UNL1       -0.4507
     29 C         139.1036  138.5336  164.5955 C.ar    1  UNL1        0.1730
     30 C         140.0942  137.4342  164.8401 C.ar    1  UNL1        0.0401
     31 C         141.1365  137.1204  163.8080 C.ar    1  UNL1        0.0033
     32 C         141.1880  137.9062  162.5312 C.ar    1  UNL1        0.0033
     33 C         140.1974  139.0056  162.2867 C.ar    1  UNL1        0.0406
     34 C         139.1551  139.3193  163.3189 C.ar    1  UNL1        0.1789
     35 C         138.4717  139.1707  167.0338 C.3     1  UNL1        0.2526
     36 O         138.0613  138.8473  165.6278 O.3     1  UNL1       -0.4684
@<TRIPOS>BOND
     1    35    36    1
     2    36    29    1
     3    29    30   ar
     4    30    31   ar
     5    31    32   ar
     6    32    33   ar
     7    33    34   ar
     8    34    28    1
     9    28    22    1
    10    22    23   ar
    11    23    24   ar
    12    24    25   ar
    13    25    26   ar
    14    26    27   ar
    15    27    21    1
    16    21     1    1
    17     1     2    1
    18     2     3    1
    19     3     4    1
    20     4     5    1
    21     5     6    1
    22     4     7    1
    23     7     8    1
    24     8     9    1
    25     9    10   am
    26    10    11    2
    27    10    14    1
    28    14    15    1
    29    15    16    2
    30    16    17    1
    31    17    18    2
    32    18    19    1
    33    19    20    2
    34     9    12    1
    35    12    13    1
    36    34    29   ar
    37    27    22   ar
    38     6     1    1
    39    19    14    1
    40    13     4    1
@<TRIPOS>MOLECULE
*****
 36 40 0 0 0
SMALL
GASTEIGER

@<TRIPOS>ATOM
      1 N         140.5362  142.7314  166.0141 N.3     1  UNL1       -0.2689
      2 C         139.2309  142.6785  165.2770 C.3     1  UNL1        0.0724
      3 C         139.2167  142.4804  163.7903 C.3     1  UNL1        0.0175
      4 C         140.5077  142.3351  163.0406 C.3     1  UNL1        0.0060
      5 C         141.8131  142.3880  163.7777 C.3     1  UNL1        0.0175
      6 C         141.8273  142.5862  165.2644 C.3     1  UNL1        0.0724
      7 C         139.2024  142.2822  162.3034 C.3     1  UNL1        0.0216
      8 C         139.1881  142.0841  160.8167 C.3     1  UNL1        0.0934
      9 N         140.4792  141.9388  160.0670 N.am    1  UNL1       -0.2789
     10 C         140.4649  141.7407  158.5802 C.2     1  UNL1        0.2382
     11 O         141.7560  141.5954  157.8305 O.2     1  UNL1       -0.2740
     12 C         141.7845  141.9917  160.8041 C.3     1  UNL1        0.0934
     13 C         141.7988  142.1899  162.2909 C.3     1  UNL1        0.0216
     14 C         139.1596  141.6878  157.8431 C.3     1  UNL1        0.1767
     15 C         138.5897  142.9357  157.2366 C.2     1  UNL1       -0.0068
     16 C         137.2844  142.8828  156.4995 C.2     1  UNL1        0.0143
     17 C         136.5489  141.5819  156.3689 C.2     1  UNL1        0.0883
     18 N         137.1188  140.3340  156.9755 N.am    1  UNL1       -0.1772
     19 C         138.4242  140.3870  157.7126 C.2     1  UNL1        0.2581
     20 O         138.9942  139.1391  158.3191 O.2     1  UNL1       -0.2721
     21 C         140.5505  142.9296  167.5009 C.3     1  UNL1        0.1022
     22 C         140.9316  140.5763  168.5336 C.ar    1  UNL1        0.1427
     23 C         141.7316  139.6543  169.4055 C.ar    1  UNL1        0.0372
     24 C         142.9501  140.1637  170.1166 C.ar    1  UNL1        0.0031
     25 C         143.3688  141.5950  169.9557 C.ar    1  UNL1       -0.0001
     26 C         142.5690  142.5170  169.0839 C.ar    1  UNL1        0.0001
     27 C         141.3504  142.0076  168.3728 C.ar    1  UNL1        0.0284
     28 O         139.7131  140.0669  167.8226 O.3     1  UNL1       -0.4507
     29 C         138.6735  138.5953  165.9508 C.ar    1  UNL1        0.1730
     30 C         138.8181  137.8312  164.6681 C.ar    1  UNL1        0.0401
     31 C         140.1469  137.7744  163.9747 C.ar    1  UNL1        0.0033
     32 C         141.3313  138.4818  164.5639 C.ar    1  UNL1        0.0033
     33 C         141.1866  139.2460  165.8465 C.ar    1  UNL1        0.0406
     34 C         139.8577  139.3027  166.5400 C.ar    1  UNL1        0.1789
     35 C         136.9367  137.5489  167.5752 C.3     1  UNL1        0.2526
     36 O         137.3446  138.6521  166.6442 O.3     1  UNL1       -0.4684
@<TRIPOS>BOND
     1    35    36    1
     2    36    29    1
     3    29    30   ar
     4    30    31   ar
     5    31    32   ar
     6    32    33   ar
     7    33    34   ar
     8    34    28    1
     9    28    22    1
    10    22    23   ar
    11    23    24   ar
    12    24    25   ar
    13    25    26   ar
    14    26    27   ar
    15    27    21    1
    16    21     1    1
    17     1     2    1
    18     2     3    1
    19     3     4    1
    20     4     5    1
    21     5     6    1
    22     4     7    1
    23     7     8    1
    24     8     9    1
    25     9    10   am
    26    10    11    2
    27    10    14    1
    28    14    15    1
    29    15    16    2
    30    16    17    1
    31    17    18    2
    32    18    19    1
    33    19    20    2
    34     9    12    1
    35    12    13    1
    36    34    29   ar
    37    27    22   ar
    38     6     1    1
    39    19    14    1
    40    13     4    1
@<TRIPOS>MOLECULE
*****
 36 40 0 0 0
SMALL
GASTEIGER

@<TRIPOS>ATOM
      1 N         141.5948  140.5357  160.6819 N.3     1  UNL1       -0.2689
      2 C         140.8543  141.5280  161.5286 C.3     1  UNL1        0.0724
      3 C         140.9434  141.4523  163.0240 C.3     1  UNL1        0.0175
      4 C         141.7730  140.3842  163.6727 C.3     1  UNL1        0.0060
      5 C         142.5135  139.3918  162.8261 C.3     1  UNL1        0.0175
      6 C         142.4244  139.4675  161.3307 C.3     1  UNL1        0.0724
      7 C         141.0325  141.3766  164.5195 C.3     1  UNL1        0.0216
      8 C         141.1217  141.3008  166.0149 C.3     1  UNL1        0.0934
      9 N         141.9513  140.2327  166.6636 N.am    1  UNL1       -0.2789
     10 C         142.0404  140.1570  168.1591 C.2     1  UNL1        0.2382
     11 O         142.8700  139.0889  168.8079 O.2     1  UNL1       -0.2740
     12 C         142.6917  139.2403  165.8170 C.3     1  UNL1        0.0934
     13 C         142.6026  139.3160  164.3215 C.3     1  UNL1        0.0216
     14 C         141.2999  141.1494  169.0057 C.3     1  UNL1        0.1767
     15 C         141.9235  142.4756  169.3254 C.2     1  UNL1       -0.0068
     16 C         141.1831  143.4680  170.1720 C.2     1  UNL1        0.0143
     17 C         139.8189  143.1342  170.6991 C.2     1  UNL1        0.0883
     18 N         139.1953  141.8079  170.3794 N.am    1  UNL1       -0.1772
     19 C         139.9358  140.8155  169.5327 C.2     1  UNL1        0.2581
     20 O         139.3122  139.4893  169.2131 O.2     1  UNL1       -0.2721
     21 C         141.5057  140.6114  159.1864 C.3     1  UNL1        0.1022
     22 C         143.6287  141.9799  158.5785 C.ar    1  UNL1        0.1427
     23 C         144.8746  142.1499  157.7605 C.ar    1  UNL1        0.0372
     24 C         145.2431  141.1215  156.7327 C.ar    1  UNL1        0.0031
     25 C         144.3658  139.9230  156.5227 C.ar    1  UNL1       -0.0001
     26 C         143.1200  139.7530  157.3406 C.ar    1  UNL1        0.0001
     27 C         142.7515  140.7814  158.3685 C.ar    1  UNL1        0.0284
     28 O         143.2602  143.0083  159.6063 O.3     1  UNL1       -0.4507
     29 C         143.3580  143.8687  162.0558 C.ar    1  UNL1        0.1730
     30 C         143.9217  143.7783  163.4429 C.ar    1  UNL1        0.0401
     31 C         144.9513  142.7370  163.7676 C.ar    1  UNL1        0.0033
     32 C         145.4173  141.7861  162.7052 C.ar    1  UNL1        0.0033
     33 C         144.8536  141.8765  161.3181 C.ar    1  UNL1        0.0406
     34 C         143.8239  142.9179  160.9934 C.ar    1  UNL1        0.1789
     35 C         141.2194  145.1960  162.6999 C.3     1  UNL1        0.2526
     36 O         142.3282  144.9101  161.7311 O.3     1  UNL1       -0.4684
@<TRIPOS>BOND
     1    35    36    1
     2    36    29    1
     3    29    30   ar
     4    30    31   ar
     5    31    32   ar
     6    32    33   ar
     7    33    34   ar
     8    34    28    1
     9    28    22    1
    10    22    23   ar
    11    23    24   ar
    12    24    25   ar
    13    25    26   ar
    14    26    27   ar
    15    27    21    1
    16    21     1    1
    17     1     2    1
    18     2     3    1
    19     3     4    1
    20     4     5    1
    21     5     6    1
    22     4     7    1
    23     7     8    1
    24     8     9    1
    25     9    10   am
    26    10    11    2
    27    10    14    1
    28    14    15    1
    29    15    16    2
    30    16    17    1
    31    17    18    2
    32    18    19    1
    33    19    20    2
    34     9    12    1
    35    12    13    1
    36    34    29   ar
    37    27    22   ar
    38     6     1    1
    39    19    14    1
    40    13     4    1
@<TRIPOS>MOLECULE
*****
 36 40 0 0 0
SMALL
GASTEIGER

@<TRIPOS>ATOM
      1 N         142.5942  139.6106  166.2360 N.3     1  UNL1       -0.2689
      2 C         142.8950  140.8388  165.4292 C.3     1  UNL1        0.0724
      3 C         142.7530  140.8087  163.9362 C.3     1  UNL1        0.0175
      4 C         142.3102  139.5504  163.2502 C.3     1  UNL1        0.0060
      5 C         142.0093  138.3223  164.0570 C.3     1  UNL1        0.0175
      6 C         142.1513  138.3524  165.5499 C.3     1  UNL1        0.0724
      7 C         142.6110  140.7786  162.4432 C.3     1  UNL1        0.0216
      8 C         142.4690  140.7486  160.9503 C.3     1  UNL1        0.0934
      9 N         142.0262  139.4903  160.2642 N.am    1  UNL1       -0.2789
     10 C         141.8842  139.4603  158.7712 C.2     1  UNL1        0.2382
     11 O         141.4413  138.2020  158.0851 O.2     1  UNL1       -0.2740
     12 C         141.7253  138.2621  161.0711 C.3     1  UNL1        0.0934
     13 C         141.8673  138.2922  162.5641 C.3     1  UNL1        0.0216
     14 C         142.1850  140.6884  157.9644 C.3     1  UNL1        0.1767
     15 C         141.1001  141.6853  157.6829 C.2     1  UNL1       -0.0068
     16 C         141.4010  142.9134  156.8760 C.2     1  UNL1        0.0143
     17 C         142.7868  143.1448  156.3506 C.2     1  UNL1        0.0883
     18 N         143.8717  142.1480  156.6321 N.am    1  UNL1       -0.1772
     19 C         143.5708  140.9197  157.4390 C.2     1  UNL1        0.2581
     20 O         144.6558  139.9229  157.7205 O.2     1  UNL1       -0.2721
     21 C         142.7361  139.6406  167.7290 C.3     1  UNL1        0.1022
     22 C         140.7958  141.1598  168.5517 C.ar    1  UNL1        0.1427
     23 C         140.3186  142.3523  169.3267 C.ar    1  UNL1        0.0372
     24 C         141.3045  143.2177  170.0539 C.ar    1  UNL1        0.0031
     25 C         142.7677  142.8909  170.0061 C.ar    1  UNL1       -0.0001
     26 C         143.2449  141.6985  169.2312 C.ar    1  UNL1        0.0001
     27 C         142.2589  140.8330  168.5040 C.ar    1  UNL1        0.0284
     28 O         139.8098  140.2944  167.8246 O.3     1  UNL1       -0.4507
     29 C         138.7014  139.6196  165.5738 C.ar    1  UNL1        0.1730
     30 C         138.2899  139.9652  164.1733 C.ar    1  UNL1        0.0401
     31 C         138.5753  141.3311  163.6232 C.ar    1  UNL1        0.0033
     32 C         139.2722  142.3516  164.4736 C.ar    1  UNL1        0.0033
     33 C         139.6837  142.0060  165.8740 C.ar    1  UNL1        0.0406
     34 C         139.3983  140.6400  166.4241 C.ar    1  UNL1        0.1789
     35 C         137.3366  138.0682  167.1488 C.3     1  UNL1        0.2526
     36 O         138.4160  138.2535  166.1239 O.3     1  UNL1       -0.4684
@<TRIPOS>BOND
     1    35    36    1
     2    36    29    1
     3    29    30   ar
     4    30    31   ar
     5    31    32   ar
     6    32    33   ar
     7    33    34   ar
     8    34    28    1
     9    28    22    1
    10    22    23   ar
    11    23    24   ar
    12    24    25   ar
    13    25    26   ar
    14    26    27   ar
    15    27    21    1
    16    21     1    1
    17     1     2    1
    18     2     3    1
    19     3     4    1
    20     4     5    1
    21     5     6    1
    22     4     7    1
    23     7     8    1
    24     8     9    1
    25     9    10   am
    26    10    11    2
    27    10    14    1
    28    14    15    1
    29    15    16    2
    30    16    17    1
    31    17    18    2
    32    18    19    1
    33    19    20    2
    34     9    12    1
    35    12    13    1
    36    34    29   ar
    37    27    22   ar
    38     6     1    1
    39    19    14    1
    40    13     4    1
@<TRIPOS>MOLECULE
*****
 36 40 0 0 0
SMALL
GASTEIGER

@<TRIPOS>ATOM
      1 N         141.7272  141.0432  163.5145 N.3     1  UNL1       -0.2689
      2 C         141.3158  141.5678  162.1709 C.3     1  UNL1        0.0724
      3 C         141.5168  140.7281  160.9443 C.3     1  UNL1        0.0175
      4 C         142.1293  139.3639  161.0614 C.3     1  UNL1        0.0060
      5 C         142.5407  138.8393  162.4050 C.3     1  UNL1        0.0175
      6 C         142.3397  139.6789  163.6316 C.3     1  UNL1        0.0724
      7 C         141.7178  139.8884  159.7176 C.3     1  UNL1        0.0216
      8 C         141.9188  139.0488  158.4911 C.3     1  UNL1        0.0934
      9 N         142.5313  137.6845  158.6082 N.am    1  UNL1       -0.2789
     10 C         142.7323  136.8448  157.3815 C.2     1  UNL1        0.2382
     11 O         143.3448  135.4806  157.4986 O.2     1  UNL1       -0.2740
     12 C         142.9428  137.1599  159.9518 C.3     1  UNL1        0.0934
     13 C         142.7418  137.9996  161.1785 C.3     1  UNL1        0.0216
     14 C         142.3208  137.3694  156.0378 C.3     1  UNL1        0.1767
     15 C         140.8960  137.2410  155.5868 C.2     1  UNL1       -0.0068
     16 C         140.4846  137.7656  154.2431 C.2     1  UNL1        0.0143
     17 C         141.4979  138.4186  153.3504 C.2     1  UNL1        0.0883
     18 N         142.9227  138.5470  153.8015 N.am    1  UNL1       -0.1772
     19 C         143.3342  138.0224  155.1453 C.2     1  UNL1        0.2581
     20 O         144.7590  138.1508  155.5963 O.2     1  UNL1       -0.2721
     21 C         141.5262  141.8829  164.7412 C.3     1  UNL1        0.1022
     22 C         139.7483  140.8015  166.2966 C.ar    1  UNL1        0.1427
     23 C         139.3843  140.1519  167.5988 C.ar    1  UNL1        0.0372
     24 C         140.4343  139.9342  168.6476 C.ar    1  UNL1        0.0031
     25 C         141.8483  140.3661  168.3943 C.ar    1  UNL1       -0.0001
     26 C         142.2123  141.0156  167.0922 C.ar    1  UNL1        0.0001
     27 C         141.1623  141.2333  166.0433 C.ar    1  UNL1        0.0284
     28 O         138.6983  141.0192  165.2478 O.3     1  UNL1       -0.4507
     29 C         137.8032  140.4324  162.8805 C.ar    1  UNL1        0.1730
     30 C         137.6539  139.4532  161.7540 C.ar    1  UNL1        0.0401
     31 C         138.2505  138.0817  161.8684 C.ar    1  UNL1        0.0033
     32 C         138.9964  137.6894  163.1093 C.ar    1  UNL1        0.0033
     33 C         139.1456  138.6685  164.2358 C.ar    1  UNL1        0.0406
     34 C         138.5490  140.0401  164.1214 C.ar    1  UNL1        0.1789
     35 C         137.9369  142.8795  162.0180 C.3     1  UNL1        0.2526
     36 O         137.2066  141.8039  162.7661 O.3     1  UNL1       -0.4684
@<TRIPOS>BOND
     1    35    36    1
     2    36    29    1
     3    29    30   ar
     4    30    31   ar
     5    31    32   ar
     6    32    33   ar
     7    33    34   ar
     8    34    28    1
     9    28    22    1
    10    22    23   ar
    11    23    24   ar
    12    24    25   ar
    13    25    26   ar
    14    26    27   ar
    15    27    21    1
    16    21     1    1
    17     1     2    1
    18     2     3    1
    19     3     4    1
    20     4     5    1
    21     5     6    1
    22     4     7    1
    23     7     8    1
    24     8     9    1
    25     9    10   am
    26    10    11    2
    27    10    14    1
    28    14    15    1
    29    15    16    2
    30    16    17    1
    31    17    18    2
    32    18    19    1
    33    19    20    2
    34     9    12    1
    35    12    13    1
    36    34    29   ar
    37    27    22   ar
    38     6     1    1
    39    19    14    1
    40    13     4    1
@<TRIPOS>MOLECULE
*****
 36 40 0 0 0
SMALL
GASTEIGER

@<TRIPOS>ATOM
      1 N         140.3160  142.2152  165.2330 N.3     1  UNL1       -0.2689
      2 C         140.3551  141.2240  164.1079 C.3     1  UNL1        0.0724
      3 C         140.6870  141.6799  162.7180 C.3     1  UNL1        0.0175
      4 C         140.9797  143.1270  162.4531 C.3     1  UNL1        0.0060
      5 C         140.9405  144.1182  163.5782 C.3     1  UNL1        0.0175
      6 C         140.6087  143.6624  164.9681 C.3     1  UNL1        0.0724
      7 C         141.0188  142.1357  161.3279 C.3     1  UNL1        0.0216
      8 C         141.3506  142.5916  159.9380 C.3     1  UNL1        0.0934
      9 N         141.6433  144.0387  159.6731 N.am    1  UNL1       -0.2789
     10 C         141.9752  144.4946  158.2831 C.2     1  UNL1        0.2382
     11 O         142.2679  145.9417  158.0182 O.2     1  UNL1       -0.2740
     12 C         141.6042  145.0300  160.7982 C.3     1  UNL1        0.0934
     13 C         141.2723  144.5741  162.1882 C.3     1  UNL1        0.0216
     14 C         142.0143  143.5033  157.1580 C.3     1  UNL1        0.1767
     15 C         143.2907  142.7842  156.8361 C.2     1  UNL1       -0.0068
     16 C         143.3299  141.7929  155.7110 C.2     1  UNL1        0.0143
     17 C         142.0926  141.5208  154.9078 C.2     1  UNL1        0.0883
     18 N         140.8162  142.2399  155.2297 N.am    1  UNL1       -0.1772
     19 C         140.7771  143.2312  156.3549 C.2     1  UNL1        0.2581
     20 O         139.5007  143.9503  156.6768 O.2     1  UNL1       -0.2721
     21 C         139.9842  141.7594  166.6231 C.3     1  UNL1        0.1022
     22 C         142.2583  141.6770  167.8767 C.ar    1  UNL1        0.1427
     23 C         143.1220  142.0954  169.0295 C.ar    1  UNL1        0.0372
     24 C         142.5754  143.0145  170.0814 C.ar    1  UNL1        0.0031
     25 C         141.1651  143.5152  169.9805 C.ar    1  UNL1       -0.0001
     26 C         140.3013  143.0969  168.8278 C.ar    1  UNL1        0.0001
     27 C         140.8479  142.1777  167.7758 C.ar    1  UNL1        0.0284
     28 O         142.8048  140.7579  166.8248 O.3     1  UNL1       -0.4507
     29 C         143.7376  140.4590  164.4185 C.ar    1  UNL1        0.1730
     30 C         144.4290  141.0251  163.2136 C.ar    1  UNL1        0.0401
     31 C         144.8790  142.4559  163.2103 C.ar    1  UNL1        0.0033
     32 C         144.6376  143.3209  164.4119 C.ar    1  UNL1        0.0033
     33 C         143.9462  142.7549  165.6167 C.ar    1  UNL1        0.0406
     34 C         143.4962  141.3239  165.6200 C.ar    1  UNL1        0.1789
     35 C         142.8793  138.3673  163.1385 C.3     1  UNL1        0.2526
     36 O         143.2876  139.0281  164.4217 O.3     1  UNL1       -0.4684
@<TRIPOS>BOND
     1    35    36    1
     2    36    29    1
     3    29    30   ar
     4    30    31   ar
     5    31    32   ar
     6    32    33   ar
     7    33    34   ar
     8    34    28    1
     9    28    22    1
    10    22    23   ar
    11    23    24   ar
    12    24    25   ar
    13    25    26   ar
    14    26    27   ar
    15    27    21    1
    16    21     1    1
    17     1     2    1
    18     2     3    1
    19     3     4    1
    20     4     5    1
    21     5     6    1
    22     4     7    1
    23     7     8    1
    24     8     9    1
    25     9    10   am
    26    10    11    2
    27    10    14    1
    28    14    15    1
    29    15    16    2
    30    16    17    1
    31    17    18    2
    32    18    19    1
    33    19    20    2
    34     9    12    1
    35    12    13    1
    36    34    29   ar
    37    27    22   ar
    38     6     1    1
    39    19    14    1
    40    13     4    1
@<TRIPOS>MOLECULE
*****
 36 40 0 0 0
SMALL
GASTEIGER

@<TRIPOS>ATOM
      1 N         142.5932  139.5716  166.2623 N.3     1  UNL1       -0.2689
      2 C         142.0562  138.4342  165.4451 C.3     1  UNL1        0.0724
      3 C         141.9457  138.5678  163.9552 C.3     1  UNL1        0.0175
      4 C         142.3722  139.8388  163.2825 C.3     1  UNL1        0.0060
      5 C         142.9092  140.9762  164.0997 C.3     1  UNL1        0.0175
      6 C         143.0197  140.8426  165.5896 C.3     1  UNL1        0.0724
      7 C         141.8352  138.7013  162.4652 C.3     1  UNL1        0.0216
      8 C         141.7246  138.8349  160.9753 C.3     1  UNL1        0.0934
      9 N         142.1511  140.1060  160.3026 N.am    1  UNL1       -0.2789
     10 C         142.0406  140.2395  158.8126 C.2     1  UNL1        0.2382
     11 O         142.4670  141.5106  158.1398 O.2     1  UNL1       -0.2740
     12 C         142.6881  141.2434  161.1197 C.3     1  UNL1        0.0934
     13 C         142.7986  141.1098  162.6097 C.3     1  UNL1        0.0216
     14 C         141.5036  139.1021  157.9954 C.3     1  UNL1        0.1767
     15 C         142.4440  138.0957  157.4015 C.2     1  UNL1       -0.0068
     16 C         141.9071  136.9582  156.5844 C.2     1  UNL1        0.0143
     17 C         140.4295  136.8272  156.3610 C.2     1  UNL1        0.0883
     18 N         139.4891  137.8336  156.9548 N.am    1  UNL1       -0.1772
     19 C         140.0261  138.9711  157.7721 C.2     1  UNL1        0.2581
     20 O         139.0857  139.9775  158.3659 O.2     1  UNL1       -0.2721
     21 C         142.7037  139.4380  167.7523 C.3     1  UNL1        0.1022
     22 C         140.7276  140.8086  168.7352 C.ar    1  UNL1        0.1427
     23 C         140.2233  141.9051  169.6260 C.ar    1  UNL1        0.0372
     24 C         141.1908  142.7273  170.4246 C.ar    1  UNL1        0.0031
     25 C         142.6626  142.4531  170.3325 C.ar    1  UNL1       -0.0001
     26 C         143.1670  141.3567  169.4417 C.ar    1  UNL1        0.0001
     27 C         142.1994  140.5344  168.6431 C.ar    1  UNL1        0.0284
     28 O         139.7601  139.9864  167.9366 O.3     1  UNL1       -0.4507
     29 C         138.6042  139.4901  165.6634 C.ar    1  UNL1        0.1730
     30 C         138.2060  139.9288  164.2854 C.ar    1  UNL1        0.0401
     31 C         138.5656  141.3027  163.8025 C.ar    1  UNL1        0.0033
     32 C         139.3233  142.2379  164.6977 C.ar    1  UNL1        0.0033
     33 C         139.7215  141.7991  166.0757 C.ar    1  UNL1        0.0406
     34 C         139.3619  140.4252  166.5586 C.ar    1  UNL1        0.1789
     35 C         137.2274  137.9462  167.2354 C.3     1  UNL1        0.2526
     36 O         138.2446  138.1161  166.1462 O.3     1  UNL1       -0.4684
@<TRIPOS>BOND
     1    35    36    1
     2    36    29    1
     3    29    30   ar
     4    30    31   ar
     5    31    32   ar
     6    32    33   ar
     7    33    34   ar
     8    34    28    1
     9    28    22    1
    10    22    23   ar
    11    23    24   ar
    12    24    25   ar
    13    25    26   ar
    14    26    27   ar
    15    27    21    1
    16    21     1    1
    17     1     2    1
    18     2     3    1
    19     3     4    1
    20     4     5    1
    21     5     6    1
    22     4     7    1
    23     7     8    1
    24     8     9    1
    25     9    10   am
    26    10    11    2
    27    10    14    1
    28    14    15    1
    29    15    16    2
    30    16    17    1
    31    17    18    2
    32    18    19    1
    33    19    20    2
    34     9    12    1
    35    12    13    1
    36    34    29   ar
    37    27    22   ar
    38     6     1    1
    39    19    14    1
    40    13     4    1
