@<TRIPOS>MOLECULE
*****
 24 25 0 0 0
SMALL
GASTEIGER

@<TRIPOS>ATOM
      1 C         140.4262  140.7905  169.1029 C.ar    1  UNL1        0.0925
      2 C         141.1659  140.7277  167.7994 C.ar    1  UNL1        0.0975
      3 N         140.3581  139.8961  166.8476 N.ar    1  UNL1       -0.2880
      4 C         140.5906  139.4914  165.4221 C.ar    1  UNL1        0.0771
      5 C         139.5842  138.6355  164.7118 C.ar    1  UNL1       -0.0051
      6 C         138.3453  138.1844  165.4270 C.ar    1  UNL1        0.0003
      7 C         138.1127  138.5890  166.8525 C.ar    1  UNL1        0.0371
      8 C         139.1192  139.4449  167.5628 C.ar    1  UNL1        0.1475
      9 N         139.1613  139.9977  168.9566 N.ar    1  UNL1       -0.2294
     10 C         140.8730  141.5183  170.3360 C.3     1  UNL1        0.1018
     11 N         140.7791  140.8511  171.6761 N.3     1  UNL1       -0.3171
     12 H         141.1233  141.4856  172.3967 H       1  UNL1        0.1192
     13 H         141.3435  140.0015  171.6733 H       1  UNL1        0.1192
     14 C         140.4768  144.0680  170.0328 C.3     1  UNL1        0.0114
     15 C         141.4139  142.9133  170.2291 C.3     1  UNL1        0.0961
     16 C         142.8918  143.1536  170.3184 C.2     1  UNL1        0.2206
     17 N         143.4426  144.0507  171.3869 N.am    1  UNL1       -0.3288
     18 O         143.8190  142.4968  169.3390 O.2     1  UNL1       -0.2753
     19 H         142.8341  144.4817  172.0297 H       1  UNL1        0.1449
     20 H         144.4126  144.2084  171.4455 H       1  UNL1        0.1449
     21 C         139.8167  138.2308  163.2862 C.3     1  UNL1        0.0204
     22 C         140.8357  137.2268  163.7375 C.3     1  UNL1        0.0044
     23 C         138.7977  139.2348  162.8350 C.3     1  UNL1        0.0044
     24 C         140.0492  137.8261  161.8607 C.3     1  UNL1        0.0044
@<TRIPOS>BOND
     1    15    14    1
     2    15    16    1
     3    16    17   am
     4    16    18    2
     5    15    10    1
     6    10    11    1
     7    10     1    1
     8     1     2   ar
     9     2     3   ar
    10     3     4   ar
    11     4     5   ar
    12     5    21    1
    13    21    22    1
    14    21    23    1
    15    21    24    1
    16     5     6   ar
    17     6     7   ar
    18     7     8   ar
    19     8     9   ar
    20     9     1   ar
    21     8     3   ar
    22    17    19    1
    23    17    20    1
    24    11    12    1
    25    11    13    1
@<TRIPOS>MOLECULE
*****
 24 25 0 0 0
SMALL
GASTEIGER

@<TRIPOS>ATOM
      1 C         140.3448  142.5303  167.8011 C.ar    1  UNL1        0.0925
      2 C         140.0527  141.1086  167.4224 C.ar    1  UNL1        0.0975
      3 N         139.6002  141.0934  165.9923 N.ar    1  UNL1       -0.2880
      4 C         139.1785  139.9760  165.0849 C.ar    1  UNL1        0.0771
      5 C         138.7692  140.2709  163.6723 C.ar    1  UNL1       -0.0051
      6 C         138.7817  141.6833  163.1671 C.ar    1  UNL1        0.0003
      7 C         139.2034  142.8006  164.0746 C.ar    1  UNL1        0.0371
      8 C         139.6127  142.5057  165.4872 C.ar    1  UNL1        0.1475
      9 N         140.0729  143.3937  166.6050 N.ar    1  UNL1       -0.2294
     10 C         140.8247  143.0051  169.1406 C.3     1  UNL1        0.1018
     11 N         140.1750  144.1890  169.7934 N.3     1  UNL1       -0.3171
     12 H         140.6234  144.3707  170.6914 H       1  UNL1        0.1192
     13 H         139.1846  143.9949  169.9411 H       1  UNL1        0.1192
     14 C         143.3168  142.2732  169.2006 C.3     1  UNL1        0.0114
     15 C         141.9541  142.2961  169.8272 C.3     1  UNL1        0.0961
     16 C         141.7210  141.6099  171.1406 C.2     1  UNL1        0.2206
     17 N         142.5629  140.4314  171.5309 N.am    1  UNL1       -0.3288
     18 O         140.6458  142.1021  172.0635 O.2     1  UNL1       -0.2753
     19 H         143.2686  140.1084  170.9251 H       1  UNL1        0.1449
     20 H         142.4099  139.9811  172.3929 H       1  UNL1        0.1449
     21 C         138.3474  139.1535  162.7647 C.3     1  UNL1        0.0204
     22 C         137.7900  140.1522  161.7942 C.3     1  UNL1        0.0044
     23 C         138.9048  138.1548  163.7352 C.3     1  UNL1        0.0044
     24 C         137.9256  138.0362  161.8572 C.3     1  UNL1        0.0044
@<TRIPOS>BOND
     1    15    14    1
     2    15    16    1
     3    16    17   am
     4    16    18    2
     5    15    10    1
     6    10    11    1
     7    10     1    1
     8     1     2   ar
     9     2     3   ar
    10     3     4   ar
    11     4     5   ar
    12     5    21    1
    13    21    22    1
    14    21    23    1
    15    21    24    1
    16     5     6   ar
    17     6     7   ar
    18     7     8   ar
    19     8     9   ar
    20     9     1   ar
    21     8     3   ar
    22    17    19    1
    23    17    20    1
    24    11    12    1
    25    11    13    1
@<TRIPOS>MOLECULE
*****
 24 25 0 0 0
SMALL
GASTEIGER

@<TRIPOS>ATOM
      1 C         141.6464  140.0104  168.5967 C.ar    1  UNL1        0.0925
      2 C         142.1614  139.6435  167.2365 C.ar    1  UNL1        0.0975
      3 N         140.9809  139.3824  166.3487 N.ar    1  UNL1       -0.2880
      4 C         140.8784  138.9841  164.9063 C.ar    1  UNL1        0.0771
      5 C         139.5313  138.7912  164.2754 C.ar    1  UNL1       -0.0051
      6 C         138.2867  138.9966  165.0869 C.ar    1  UNL1        0.0003
      7 C         138.3891  139.3949  166.5294 C.ar    1  UNL1        0.0371
      8 C         139.7362  139.5878  167.1603 C.ar    1  UNL1        0.1475
      9 N         140.1476  139.9759  168.5496 N.ar    1  UNL1       -0.2294
     10 C         142.4834  140.3517  169.7938 C.3     1  UNL1        0.1018
     11 N         143.1095  139.2583  170.6076 N.3     1  UNL1       -0.3171
     12 H         143.6392  139.6678  171.3770 H       1  UNL1        0.1192
     13 H         143.7357  138.7110  170.0171 H       1  UNL1        0.1192
     14 C         144.0230  142.4395  169.9371 C.3     1  UNL1        0.0114
     15 C         142.6941  141.7864  170.1771 C.3     1  UNL1        0.0961
     16 C         141.5760  142.5683  170.8006 C.2     1  UNL1        0.2206
     17 N         141.2355  143.9339  170.2818 N.am    1  UNL1       -0.3288
     18 O         140.7984  141.9844  171.9427 O.2     1  UNL1       -0.2753
     19 H         141.7458  144.3171  169.5322 H       1  UNL1        0.1449
     20 H         140.5016  144.4470  170.6910 H       1  UNL1        0.1449
     21 C         139.4288  138.3929  162.8328 C.3     1  UNL1        0.0204
     22 C         140.6069  137.4798  163.0012 C.3     1  UNL1        0.0044
     23 C         138.2507  139.3059  162.6643 C.3     1  UNL1        0.0044
     24 C         139.3264  137.9946  161.3903 C.3     1  UNL1        0.0044
@<TRIPOS>BOND
     1    15    14    1
     2    15    16    1
     3    16    17   am
     4    16    18    2
     5    15    10    1
     6    10    11    1
     7    10     1    1
     8     1     2   ar
     9     2     3   ar
    10     3     4   ar
    11     4     5   ar
    12     5    21    1
    13    21    22    1
    14    21    23    1
    15    21    24    1
    16     5     6   ar
    17     6     7   ar
    18     7     8   ar
    19     8     9   ar
    20     9     1   ar
    21     8     3   ar
    22    17    19    1
    23    17    20    1
    24    11    12    1
    25    11    13    1
@<TRIPOS>MOLECULE
*****
 24 25 0 0 0
SMALL
GASTEIGER

@<TRIPOS>ATOM
      1 C         138.9753  142.4526  163.4173 C.ar    1  UNL1        0.0925
      2 C         139.7934  142.7875  164.6292 C.ar    1  UNL1        0.0975
      3 N         139.5749  141.7089  165.6485 N.ar    1  UNL1       -0.2880
      4 C         140.1207  141.5092  167.0313 C.ar    1  UNL1        0.0771
      5 C         139.7134  140.3082  167.8321 C.ar    1  UNL1       -0.0051
      6 C         138.7603  139.3067  167.2502 C.ar    1  UNL1        0.0003
      7 C         138.2145  139.5063  165.8674 C.ar    1  UNL1        0.0371
      8 C         138.6218  140.7074  165.0665 C.ar    1  UNL1        0.1475
      9 N         138.2512  141.1671  163.6876 N.ar    1  UNL1       -0.2294
     10 C         138.8953  143.2614  162.1565 C.3     1  UNL1        0.1018
     11 N         137.6375  143.2540  161.3393 N.3     1  UNL1       -0.3171
     12 H         137.7588  143.8538  160.5232 H       1  UNL1        0.1192
     13 H         136.8628  143.6016  161.9045 H       1  UNL1        0.1192
     14 C         141.2024  143.4238  160.9730 C.3     1  UNL1        0.0114
     15 C         140.0731  144.0774  161.7130 C.3     1  UNL1        0.0961
     16 C         140.1217  145.5471  162.0094 C.2     1  UNL1        0.2206
     17 N         141.0870  146.0750  163.0289 N.am    1  UNL1       -0.3288
     18 O         139.2050  146.4887  161.2862 O.2     1  UNL1       -0.2753
     19 H         141.6886  145.4570  163.5035 H       1  UNL1        0.1449
     20 H         141.1188  147.0396  163.2234 H       1  UNL1        0.1449
     21 C         140.2592  140.1085  169.2150 C.3     1  UNL1        0.0204
     22 C         138.8986  140.3697  169.7897 C.3     1  UNL1        0.0044
     23 C         141.6199  139.8473  168.6403 C.3     1  UNL1        0.0044
     24 C         140.8050  139.9088  170.5978 C.3     1  UNL1        0.0044
@<TRIPOS>BOND
     1    15    14    1
     2    15    16    1
     3    16    17   am
     4    16    18    2
     5    15    10    1
     6    10    11    1
     7    10     1    1
     8     1     2   ar
     9     2     3   ar
    10     3     4   ar
    11     4     5   ar
    12     5    21    1
    13    21    22    1
    14    21    23    1
    15    21    24    1
    16     5     6   ar
    17     6     7   ar
    18     7     8   ar
    19     8     9   ar
    20     9     1   ar
    21     8     3   ar
    22    17    19    1
    23    17    20    1
    24    11    12    1
    25    11    13    1
@<TRIPOS>MOLECULE
*****
 24 25 0 0 0
SMALL
GASTEIGER

@<TRIPOS>ATOM
      1 C         139.9024  140.1740  167.9913 C.ar    1  UNL1        0.0925
      2 C         141.2301  140.2836  167.3019 C.ar    1  UNL1        0.0975
      3 N         141.1367  139.5504  165.9967 N.ar    1  UNL1       -0.2880
      4 C         142.1341  139.3224  164.8999 C.ar    1  UNL1        0.0771
      5 C         141.7461  138.5317  163.6858 C.ar    1  UNL1       -0.0051
      6 C         140.3607  137.9689  163.5685 C.ar    1  UNL1        0.0003
      7 C         139.3632  138.1968  164.6653 C.ar    1  UNL1        0.0371
      8 C         139.7512  138.9875  165.8794 C.ar    1  UNL1        0.1475
      9 N         138.9884  139.3730  167.1122 N.ar    1  UNL1       -0.2294
     10 C         139.5505  140.7622  169.3256 C.3     1  UNL1        0.1018
     11 N         138.4252  140.1802  170.1285 N.3     1  UNL1       -0.3171
     12 H         138.3262  140.6991  171.0011 H       1  UNL1        0.1192
     13 H         138.6258  139.2018  170.3357 H       1  UNL1        0.1192
     14 C         140.3047  143.2401  169.1224 C.3     1  UNL1        0.0114
     15 C         140.3240  141.9324  169.8569 C.3     1  UNL1        0.0961
     16 C         141.1170  141.7948  171.1228 C.2     1  UNL1        0.2206
     17 N         142.3441  142.6312  171.3337 N.am    1  UNL1       -0.3288
     18 O         140.6826  140.8210  172.1778 O.2     1  UNL1       -0.2753
     19 H         142.6292  143.2704  170.6413 H       1  UNL1        0.1449
     20 H         142.8645  142.5409  172.1646 H       1  UNL1        0.1449
     21 C         142.7436  138.3037  162.5889 C.3     1  UNL1        0.0204
     22 C         143.8297  138.8602  163.4610 C.3     1  UNL1        0.0044
     23 C         141.6575  137.7472  161.7168 C.3     1  UNL1        0.0044
     24 C         143.7411  138.0758  161.4921 C.3     1  UNL1        0.0044
@<TRIPOS>BOND
     1    15    14    1
     2    15    16    1
     3    16    17   am
     4    16    18    2
     5    15    10    1
     6    10    11    1
     7    10     1    1
     8     1     2   ar
     9     2     3   ar
    10     3     4   ar
    11     4     5   ar
    12     5    21    1
    13    21    22    1
    14    21    23    1
    15    21    24    1
    16     5     6   ar
    17     6     7   ar
    18     7     8   ar
    19     8     9   ar
    20     9     1   ar
    21     8     3   ar
    22    17    19    1
    23    17    20    1
    24    11    12    1
    25    11    13    1
@<TRIPOS>MOLECULE
*****
 24 25 0 0 0
SMALL
GASTEIGER

@<TRIPOS>ATOM
      1 C         139.7725  140.4279  168.3598 C.ar    1  UNL1        0.0925
      2 C         140.2237  141.5630  167.4893 C.ar    1  UNL1        0.0975
      3 N         139.6831  141.3322  166.1093 N.ar    1  UNL1       -0.2880
      4 C         139.8044  142.1204  164.8389 C.ar    1  UNL1        0.0771
      5 C         139.1405  141.6308  163.5862 C.ar    1  UNL1       -0.0051
      6 C         138.3551  140.3530  163.6038 C.ar    1  UNL1        0.0003
      7 C         138.2337  139.5647  164.8742 C.ar    1  UNL1        0.0371
      8 C         138.8977  140.0543  166.1269 C.ar    1  UNL1        0.1475
      9 N         138.9530  139.4954  167.5178 N.ar    1  UNL1       -0.2294
     10 C         140.0857  140.2554  169.8166 C.3     1  UNL1        0.1018
     11 N         139.0580  139.6728  170.7409 N.3     1  UNL1       -0.3171
     12 H         139.4374  139.6288  171.6867 H       1  UNL1        0.1192
     13 H         138.8136  138.7331  170.4285 H       1  UNL1        0.1192
     14 C         142.6477  139.8663  170.0024 C.3     1  UNL1        0.0114
     15 C         141.4267  140.6656  170.3490 C.3     1  UNL1        0.0961
     16 C         141.5467  141.8751  171.2281 C.2     1  UNL1        0.2206
     17 N         142.7554  142.7577  171.1287 N.am    1  UNL1       -0.3288
     18 O         140.4578  142.2020  172.2067 O.2     1  UNL1       -0.2753
     19 H         143.4701  142.5431  170.4864 H       1  UNL1        0.1449
     20 H         142.8341  143.5515  171.7056 H       1  UNL1        0.1449
     21 C         139.2618  142.4191  162.3157 C.3     1  UNL1        0.0204
     22 C         140.6938  141.9914  162.1872 C.3     1  UNL1        0.0044
     23 C         137.8299  142.8468  162.4442 C.3     1  UNL1        0.0044
     24 C         139.3832  143.2073  161.0454 C.3     1  UNL1        0.0044
@<TRIPOS>BOND
     1    15    14    1
     2    15    16    1
     3    16    17   am
     4    16    18    2
     5    15    10    1
     6    10    11    1
     7    10     1    1
     8     1     2   ar
     9     2     3   ar
    10     3     4   ar
    11     4     5   ar
    12     5    21    1
    13    21    22    1
    14    21    23    1
    15    21    24    1
    16     5     6   ar
    17     6     7   ar
    18     7     8   ar
    19     8     9   ar
    20     9     1   ar
    21     8     3   ar
    22    17    19    1
    23    17    20    1
    24    11    12    1
    25    11    13    1
@<TRIPOS>MOLECULE
*****
 24 25 0 0 0
SMALL
GASTEIGER

@<TRIPOS>ATOM
      1 C         140.9523  140.3591  168.6043 C.ar    1  UNL1        0.0925
      2 C         139.8903  140.3554  167.5450 C.ar    1  UNL1        0.0975
      3 N         140.4406  139.6527  166.3394 N.ar    1  UNL1       -0.2880
      4 C         139.8461  139.3493  164.9961 C.ar    1  UNL1        0.0771
      5 C         140.6538  138.6154  163.9670 C.ar    1  UNL1       -0.0051
      6 C         142.0559  138.1848  164.2813 C.ar    1  UNL1        0.0003
      7 C         142.6503  138.4882  165.6246 C.ar    1  UNL1        0.0371
      8 C         141.8427  139.2222  166.6536 C.ar    1  UNL1        0.1475
      9 N         142.1589  139.6588  168.0534 N.ar    1  UNL1       -0.2294
     10 C         140.8292  140.9581  169.9740 C.3     1  UNL1        0.1018
     11 N         140.3874  140.1073  171.1277 N.3     1  UNL1       -0.3171
     12 H         140.3597  140.6728  171.9762 H       1  UNL1        0.1192
     13 H         141.0445  139.3373  171.2536 H       1  UNL1        0.1192
     14 C         142.5634  142.8900  170.0734 C.3     1  UNL1        0.0114
     15 C         141.1479  142.4078  170.1901 C.3     1  UNL1        0.0961
     16 C         140.0509  143.3754  170.5228 C.2     1  UNL1        0.2206
     17 N         140.2273  144.8369  170.2353 N.am    1  UNL1       -0.3288
     18 O         138.7777  142.8813  171.1431 O.2     1  UNL1       -0.2753
     19 H         141.0630  145.1612  169.8282 H       1  UNL1        0.1449
     20 H         139.5074  145.4719  170.4537 H       1  UNL1        0.1449
     21 C         140.0593  138.3119  162.6236 C.3     1  UNL1        0.0204
     22 C         141.2308  138.9698  161.9567 C.3     1  UNL1        0.0044
     23 C         138.8879  137.6540  163.2906 C.3     1  UNL1        0.0044
     24 C         139.4649  138.0085  161.2803 C.3     1  UNL1        0.0044
@<TRIPOS>BOND
     1    15    14    1
     2    15    16    1
     3    16    17   am
     4    16    18    2
     5    15    10    1
     6    10    11    1
     7    10     1    1
     8     1     2   ar
     9     2     3   ar
    10     3     4   ar
    11     4     5   ar
    12     5    21    1
    13    21    22    1
    14    21    23    1
    15    21    24    1
    16     5     6   ar
    17     6     7   ar
    18     7     8   ar
    19     8     9   ar
    20     9     1   ar
    21     8     3   ar
    22    17    19    1
    23    17    20    1
    24    11    12    1
    25    11    13    1
@<TRIPOS>MOLECULE
*****
 24 25 0 0 0
SMALL
GASTEIGER

@<TRIPOS>ATOM
      1 C         142.4317  139.8672  168.0479 C.ar    1  UNL1        0.0925
      2 C         143.0536  138.8693  167.1166 C.ar    1  UNL1        0.0975
      3 N         142.7747  139.3109  165.7105 N.ar    1  UNL1       -0.2880
      4 C         143.1413  138.7200  164.3815 C.ar    1  UNL1        0.0771
      5 C         142.7138  139.4000  163.1147 C.ar    1  UNL1       -0.0051
      6 C         141.9196  140.6710  163.1770 C.ar    1  UNL1        0.0003
      7 C         141.5530  141.2620  164.5060 C.ar    1  UNL1        0.0371
      8 C         141.9805  140.5819  165.7728 C.ar    1  UNL1        0.1475
      9 N         141.7686  140.9257  167.2174 N.ar    1  UNL1       -0.2294
     10 C         142.4669  139.8158  169.5467 C.3     1  UNL1        0.1018
     11 N         142.9173  138.5664  170.2438 N.3     1  UNL1       -0.3171
     12 H         142.8787  138.7076  171.2533 H       1  UNL1        0.1192
     13 H         143.8747  138.3490  169.9673 H       1  UNL1        0.1192
     14 C         142.8509  142.2808  170.2720 C.3     1  UNL1        0.0114
     15 C         142.0517  141.0137  170.3482 C.3     1  UNL1        0.0961
     16 C         140.8372  140.9446  171.2259 C.2     1  UNL1        0.2206
     17 N         139.9969  139.7024  171.2471 N.am    1  UNL1       -0.3288
     18 O         140.4632  142.1179  172.0825 O.2     1  UNL1       -0.2753
     19 H         140.2423  138.9324  170.6849 H       1  UNL1        0.1449
     20 H         139.1998  139.6570  171.8232 H       1  UNL1        0.1449
     21 C         143.0804  138.8091  161.7856 C.3     1  UNL1        0.0204
     22 C         141.9776  137.8025  161.9290 C.3     1  UNL1        0.0044
     23 C         144.1832  139.8157  161.6422 C.3     1  UNL1        0.0044
     24 C         143.4469  138.2182  160.4566 C.3     1  UNL1        0.0044
@<TRIPOS>BOND
     1    15    14    1
     2    15    16    1
     3    16    17   am
     4    16    18    2
     5    15    10    1
     6    10    11    1
     7    10     1    1
     8     1     2   ar
     9     2     3   ar
    10     3     4   ar
    11     4     5   ar
    12     5    21    1
    13    21    22    1
    14    21    23    1
    15    21    24    1
    16     5     6   ar
    17     6     7   ar
    18     7     8   ar
    19     8     9   ar
    20     9     1   ar
    21     8     3   ar
    22    17    19    1
    23    17    20    1
    24    11    12    1
    25    11    13    1
@<TRIPOS>MOLECULE
*****
 24 25 0 0 0
SMALL
GASTEIGER

@<TRIPOS>ATOM
      1 C         142.2386  141.9990  168.2522 C.ar    1  UNL1        0.0925
      2 C         143.0355  142.1634  166.9920 C.ar    1  UNL1        0.0975
      3 N         142.1285  142.7306  165.9406 N.ar    1  UNL1       -0.2880
      4 C         142.3633  143.1015  164.5063 C.ar    1  UNL1        0.0771
      5 C         141.2405  143.6587  163.6823 C.ar    1  UNL1       -0.0051
      6 C         139.8830  143.8450  164.2926 C.ar    1  UNL1        0.0003
      7 C         139.6482  143.4740  165.7269 C.ar    1  UNL1        0.0371
      8 C         140.7709  142.9168  166.5509 C.ar    1  UNL1        0.1475
      9 N         140.8390  142.4647  167.9795 N.ar    1  UNL1       -0.2294
     10 C         142.7512  141.4631  169.5560 C.3     1  UNL1        0.1018
     11 N         143.9757  142.0609  170.1831 N.3     1  UNL1       -0.3171
     12 H         144.1795  141.5784  171.0583 H       1  UNL1        0.1192
     13 H         143.8134  143.0504  170.3701 H       1  UNL1        0.1192
     14 C         142.5076  138.9195  170.0258 C.3     1  UNL1        0.0114
     15 C         142.0394  140.3295  170.2328 C.3     1  UNL1        0.0961
     16 C         140.8593  140.6057  171.1166 C.2     1  UNL1        0.2206
     17 N         139.8172  139.5479  171.3287 N.am    1  UNL1       -0.3288
     18 O         140.7214  141.9398  171.7884 O.2     1  UNL1       -0.2753
     19 H         139.9077  138.6724  170.8878 H       1  UNL1        0.1449
     20 H         139.0427  139.7293  171.9087 H       1  UNL1        0.1449
     21 C         141.4753  144.0297  162.2479 C.3     1  UNL1        0.0204
     22 C         142.7963  144.6346  162.6207 C.3     1  UNL1        0.0044
     23 C         140.1543  143.4248  161.8752 C.3     1  UNL1        0.0044
     24 C         141.7101  144.4007  160.8137 C.3     1  UNL1        0.0044
@<TRIPOS>BOND
     1    15    14    1
     2    15    16    1
     3    16    17   am
     4    16    18    2
     5    15    10    1
     6    10    11    1
     7    10     1    1
     8     1     2   ar
     9     2     3   ar
    10     3     4   ar
    11     4     5   ar
    12     5    21    1
    13    21    22    1
    14    21    23    1
    15    21    24    1
    16     5     6   ar
    17     6     7   ar
    18     7     8   ar
    19     8     9   ar
    20     9     1   ar
    21     8     3   ar
    22    17    19    1
    23    17    20    1
    24    11    12    1
    25    11    13    1
