@<TRIPOS>MOLECULE
*****
 18 20 0 0 0
SMALL
GASTEIGER

@<TRIPOS>ATOM
      1 C         139.5554  141.8388  165.8661 C.3     1  UNL1        0.0347
      2 C         139.9420  143.2651  166.1230 C.3     1  UNL1        0.0054
      3 C         139.2107  144.3767  165.4306 C.3     1  UNL1        0.0004
      4 C         138.0928  144.0620  164.4812 C.3     1  UNL1        0.0001
      5 C         137.7062  142.6356  164.2243 C.3     1  UNL1        0.0017
      6 C         138.4375  141.5240  164.9167 C.3     1  UNL1        0.0208
      7 C         138.2814  140.0332  164.8625 C.3     1  UNL1        0.0689
      8 N         139.3027  139.4265  165.7783 N.3     1  UNL1       -0.2972
      9 C         140.0901  140.5424  166.3985 C.3     1  UNL1        0.0726
     10 H         139.9250  138.8171  165.2475 H       1  UNL1        0.1233
     11 CL        144.0858  142.4781  169.7476 Cl      1  UNL1       -0.0814
     12 C         142.9532  142.3183  168.7772 C.ar    1  UNL1        0.0682
     13 C         143.2295  142.2677  167.3038 C.ar    1  UNL1        0.0119
     14 C         142.0969  142.1079  166.3334 C.ar    1  UNL1       -0.0033
     15 C         140.6880  141.9986  166.8365 C.ar    1  UNL1       -0.0206
     16 C         140.4118  142.0492  168.3099 C.ar    1  UNL1        0.0080
     17 C         141.5443  142.2090  169.2803 C.ar    1  UNL1        0.0679
     18 CL        141.2680  142.2595  170.7537 Cl      1  UNL1       -0.0814
@<TRIPOS>BOND
     1    11    12    1
     2    12    13   ar
     3    13    14   ar
     4    14    15   ar
     5     1    15    1
     6     1     2    1
     7     2     3    1
     8     3     4    1
     9     4     5    1
    10     6     5    1
    11     6     7    1
    12     7     8    1
    13     8     9    1
    14    15    16   ar
    15    16    17   ar
    16    17    18    1
    17    17    12   ar
    18     6     1    1
    19     9     1    1
    20     8    10    1
@<TRIPOS>MOLECULE
*****
 18 20 0 0 0
SMALL
GASTEIGER

@<TRIPOS>ATOM
      1 C         143.3024  141.0126  165.8630 C.3     1  UNL1        0.0347
      2 C         143.5699  142.4872  165.9251 C.3     1  UNL1        0.0054
      3 C         144.5545  143.1112  164.9811 C.3     1  UNL1        0.0004
      4 C         145.2716  142.2605  163.9750 C.3     1  UNL1        0.0001
      5 C         145.0040  140.7859  163.9129 C.3     1  UNL1        0.0017
      6 C         144.0194  140.1619  164.8568 C.3     1  UNL1        0.0208
      7 C         143.5534  138.7467  165.0302 C.3     1  UNL1        0.0689
      8 N         142.5484  138.7227  166.1434 N.3     1  UNL1       -0.2972
      9 C         142.3932  140.1230  166.6581 C.3     1  UNL1        0.0726
     10 H         142.8761  138.1129  166.8925 H       1  UNL1        0.1233
     11 CL        140.1476  143.8897  170.0783 Cl      1  UNL1       -0.0814
     12 C         140.9363  143.1704  169.0244 C.ar    1  UNL1        0.0682
     13 C         140.3141  142.8771  167.6916 C.ar    1  UNL1        0.0119
     14 C         141.1028  142.1578  166.6377 C.ar    1  UNL1       -0.0033
     15 C         142.5137  141.7319  166.9168 C.ar    1  UNL1       -0.0206
     16 C         143.1359  142.0252  168.2498 C.ar    1  UNL1        0.0080
     17 C         142.3472  142.7445  169.3036 C.ar    1  UNL1        0.0679
     18 CL        142.9694  143.0379  170.6365 Cl      1  UNL1       -0.0814
@<TRIPOS>BOND
     1    11    12    1
     2    12    13   ar
     3    13    14   ar
     4    14    15   ar
     5     1    15    1
     6     1     2    1
     7     2     3    1
     8     3     4    1
     9     4     5    1
    10     6     5    1
    11     6     7    1
    12     7     8    1
    13     8     9    1
    14    15    16   ar
    15    16    17   ar
    16    17    18    1
    17    17    12   ar
    18     6     1    1
    19     9     1    1
    20     8    10    1
@<TRIPOS>MOLECULE
*****
 18 20 0 0 0
SMALL
GASTEIGER

@<TRIPOS>ATOM
      1 C         140.9366  139.4412  166.1708 C.3     1  UNL1        0.0347
      2 C         139.5338  139.6513  166.6585 C.3     1  UNL1        0.0054
      3 C         138.4310  138.7545  166.1795 C.3     1  UNL1        0.0004
      4 C         138.7311  137.6475  165.2128 C.3     1  UNL1        0.0001
      5 C         140.1339  137.4373  164.7251 C.3     1  UNL1        0.0017
      6 C         141.2367  138.3342  165.2041 C.3     1  UNL1        0.0208
      7 C         142.7052  138.3692  164.9007 C.3     1  UNL1        0.0689
      8 N         143.3128  139.4978  165.6798 N.3     1  UNL1       -0.2972
      9 C         142.2197  140.1603  166.4648 C.3     1  UNL1        0.0726
     10 H         143.7369  140.1705  165.0410 H       1  UNL1        0.1233
     11 CL        140.3479  144.0107  170.0143 Cl      1  UNL1       -0.0814
     12 C         140.4950  142.8683  169.0534 C.ar    1  UNL1        0.0682
     13 C         140.3485  143.1045  167.5795 C.ar    1  UNL1        0.0119
     14 C         140.4957  141.9621  166.6186 C.ar    1  UNL1       -0.0033
     15 C         140.7894  140.5836  167.1317 C.ar    1  UNL1       -0.0206
     16 C         140.9359  140.3474  168.6058 C.ar    1  UNL1        0.0080
     17 C         140.7887  141.4898  169.5666 C.ar    1  UNL1        0.0679
     18 CL        140.9352  141.2536  171.0406 Cl      1  UNL1       -0.0814
@<TRIPOS>BOND
     1    11    12    1
     2    12    13   ar
     3    13    14   ar
     4    14    15   ar
     5     1    15    1
     6     1     2    1
     7     2     3    1
     8     3     4    1
     9     4     5    1
    10     6     5    1
    11     6     7    1
    12     7     8    1
    13     8     9    1
    14    15    16   ar
    15    16    17   ar
    16    17    18    1
    17    17    12   ar
    18     6     1    1
    19     9     1    1
    20     8    10    1
@<TRIPOS>MOLECULE
*****
 18 20 0 0 0
SMALL
GASTEIGER

@<TRIPOS>ATOM
      1 C         140.2559  141.4145  167.1843 C.3     1  UNL1        0.0347
      2 C         140.7931  142.6641  167.8166 C.3     1  UNL1        0.0054
      3 C         140.5975  142.9059  169.2840 C.3     1  UNL1        0.0004
      4 C         139.8648  141.8981  170.1190 C.3     1  UNL1        0.0001
      5 C         139.3275  140.6485  169.4867 C.3     1  UNL1        0.0017
      6 C         139.5231  140.4067  168.0193 C.3     1  UNL1        0.0208
      7 C         139.1090  139.2764  167.1244 C.3     1  UNL1        0.0689
      8 N         139.5859  139.5856  165.7362 N.3     1  UNL1       -0.2972
      9 C         140.2947  140.9070  165.7733 C.3     1  UNL1        0.0726
     10 H         138.7901  139.6373  165.1003 H       1  UNL1        0.1233
     11 CL        143.0884  145.0637  163.3555 Cl      1  UNL1       -0.0814
     12 C         142.3803  144.1514  164.3127 C.ar    1  UNL1        0.0682
     13 C         140.8909  144.2373  164.4679 C.ar    1  UNL1        0.0119
     14 C         140.1827  143.3250  165.4251 C.ar    1  UNL1       -0.0033
     15 C         140.9640  142.3268  166.2271 C.ar    1  UNL1       -0.0206
     16 C         142.4535  142.2409  166.0718 C.ar    1  UNL1        0.0080
     17 C         143.1616  143.1532  165.1146 C.ar    1  UNL1        0.0679
     18 CL        144.6510  143.0673  164.9593 Cl      1  UNL1       -0.0814
@<TRIPOS>BOND
     1    11    12    1
     2    12    13   ar
     3    13    14   ar
     4    14    15   ar
     5     1    15    1
     6     1     2    1
     7     2     3    1
     8     3     4    1
     9     4     5    1
    10     6     5    1
    11     6     7    1
    12     7     8    1
    13     8     9    1
    14    15    16   ar
    15    16    17   ar
    16    17    18    1
    17    17    12   ar
    18     6     1    1
    19     9     1    1
    20     8    10    1
@<TRIPOS>MOLECULE
*****
 18 20 0 0 0
SMALL
GASTEIGER

@<TRIPOS>ATOM
      1 C         139.5700  139.6074  164.7710 C.3     1  UNL1        0.0347
      2 C         140.7762  139.1382  165.5290 C.3     1  UNL1        0.0054
      3 C         141.5525  137.9505  165.0425 C.3     1  UNL1        0.0004
      4 C         141.1226  137.2320  163.7979 C.3     1  UNL1        0.0001
      5 C         139.9163  137.7013  163.0399 C.3     1  UNL1        0.0017
      6 C         139.1401  138.8890  163.5264 C.3     1  UNL1        0.0208
      7 C         137.9186  139.5769  162.9926 C.3     1  UNL1        0.0689
      8 N         137.5936  140.7204  163.9074 N.3     1  UNL1       -0.2972
      9 C         138.6142  140.7393  165.0064 C.3     1  UNL1        0.0726
     10 H         136.6618  140.5936  164.3024 H       1  UNL1        0.1233
     11 CL        140.8018  142.8654  169.6565 Cl      1  UNL1       -0.0814
     12 C         140.4938  142.0509  168.4351 C.ar    1  UNL1        0.0682
     13 C         140.9647  142.5121  167.0877 C.ar    1  UNL1        0.0119
     14 C         140.6568  141.6977  165.8663 C.ar    1  UNL1       -0.0033
     15 C         139.8780  140.4219  165.9924 C.ar    1  UNL1       -0.0206
     16 C         139.4071  139.9607  167.3398 C.ar    1  UNL1        0.0080
     17 C         139.7150  140.7751  168.5611 C.ar    1  UNL1        0.0679
     18 CL        139.2441  140.3139  169.9085 Cl      1  UNL1       -0.0814
@<TRIPOS>BOND
     1    11    12    1
     2    12    13   ar
     3    13    14   ar
     4    14    15   ar
     5     1    15    1
     6     1     2    1
     7     2     3    1
     8     3     4    1
     9     4     5    1
    10     6     5    1
    11     6     7    1
    12     7     8    1
    13     8     9    1
    14    15    16   ar
    15    16    17   ar
    16    17    18    1
    17    17    12   ar
    18     6     1    1
    19     9     1    1
    20     8    10    1
@<TRIPOS>MOLECULE
*****
 18 20 0 0 0
SMALL
GASTEIGER

@<TRIPOS>ATOM
      1 C         141.2571  142.9941  165.6688 C.3     1  UNL1        0.0347
      2 C         139.8064  143.2757  165.9262 C.3     1  UNL1        0.0054
      3 C         139.0621  144.2381  165.0490 C.3     1  UNL1        0.0004
      4 C         139.7684  144.9191  163.9144 C.3     1  UNL1        0.0001
      5 C         141.2191  144.6375  163.6569 C.3     1  UNL1        0.0017
      6 C         141.9634  143.6751  164.5342 C.3     1  UNL1        0.0208
      7 C         143.3869  143.2024  164.5239 C.3     1  UNL1        0.0689
      8 N         143.5604  142.2293  165.6522 N.3     1  UNL1       -0.2972
      9 C         142.2441  142.1006  166.3598 C.3     1  UNL1        0.0726
     10 H         144.2694  142.5732  166.2999 H       1  UNL1        0.1233
     11 CL        138.9771  139.9850  170.3322 Cl      1  UNL1       -0.0814
     12 C         139.5471  140.7373  169.1663 C.ar    1  UNL1        0.0682
     13 C         139.5933  140.0968  167.8108 C.ar    1  UNL1        0.0119
     14 C         140.1633  140.8491  166.6449 C.ar    1  UNL1       -0.0033
     15 C         140.6871  142.2418  166.8347 C.ar    1  UNL1       -0.0206
     16 C         140.6408  142.8823  168.1903 C.ar    1  UNL1        0.0080
     17 C         140.0709  142.1300  169.3561 C.ar    1  UNL1        0.0679
     18 CL        140.0246  142.7704  170.7117 Cl      1  UNL1       -0.0814
@<TRIPOS>BOND
     1    11    12    1
     2    12    13   ar
     3    13    14   ar
     4    14    15   ar
     5     1    15    1
     6     1     2    1
     7     2     3    1
     8     3     4    1
     9     4     5    1
    10     6     5    1
    11     6     7    1
    12     7     8    1
    13     8     9    1
    14    15    16   ar
    15    16    17   ar
    16    17    18    1
    17    17    12   ar
    18     6     1    1
    19     9     1    1
    20     8    10    1
@<TRIPOS>MOLECULE
*****
 18 20 0 0 0
SMALL
GASTEIGER

@<TRIPOS>ATOM
      1 C         139.4627  140.9339  165.7980 C.3     1  UNL1        0.0347
      2 C         140.1500  142.0333  166.5521 C.3     1  UNL1        0.0054
      3 C         139.9476  143.4626  166.1444 C.3     1  UNL1        0.0004
      4 C         139.0580  143.7924  164.9826 C.3     1  UNL1        0.0001
      5 C         138.3708  142.6929  164.2285 C.3     1  UNL1        0.0017
      6 C         138.5731  141.2637  164.6361 C.3     1  UNL1        0.0208
      7 C         138.0319  139.9770  164.0869 C.3     1  UNL1        0.0689
      8 N         138.5870  138.8520  164.9092 N.3     1  UNL1       -0.2972
      9 C         139.4713  139.4434  165.9667 C.3     1  UNL1        0.0726
     10 H         139.1294  138.2243  164.3158 H       1  UNL1        0.1233
     11 CL        142.8845  139.0115  170.3362 Cl      1  UNL1       -0.0814
     12 C         142.0291  139.4921  169.2016 C.ar    1  UNL1        0.0682
     13 C         142.5851  139.5355  167.8092 C.ar    1  UNL1        0.0119
     14 C         141.7297  140.0161  166.6746 C.ar    1  UNL1       -0.0033
     15 C         140.3182  140.4533  166.9325 C.ar    1  UNL1       -0.0206
     16 C         139.7621  140.4099  168.3250 C.ar    1  UNL1        0.0080
     17 C         140.6176  139.9293  169.4595 C.ar    1  UNL1        0.0679
     18 CL        140.0615  139.8859  170.8519 Cl      1  UNL1       -0.0814
@<TRIPOS>BOND
     1    11    12    1
     2    12    13   ar
     3    13    14   ar
     4    14    15   ar
     5     1    15    1
     6     1     2    1
     7     2     3    1
     8     3     4    1
     9     4     5    1
    10     6     5    1
    11     6     7    1
    12     7     8    1
    13     8     9    1
    14    15    16   ar
    15    16    17   ar
    16    17    18    1
    17    17    12   ar
    18     6     1    1
    19     9     1    1
    20     8    10    1
@<TRIPOS>MOLECULE
*****
 18 20 0 0 0
SMALL
GASTEIGER

@<TRIPOS>ATOM
      1 C         140.3597  140.4719  167.1603 C.3     1  UNL1        0.0347
      2 C         141.1193  140.8613  165.9269 C.3     1  UNL1        0.0054
      3 C         142.3740  141.6749  166.0444 C.3     1  UNL1        0.0004
      4 C         142.8690  142.0991  167.3953 C.3     1  UNL1        0.0001
      5 C         142.1094  141.7098  168.6287 C.3     1  UNL1        0.0017
      6 C         140.8548  140.8962  168.5112 C.3     1  UNL1        0.0208
      7 C         139.9017  140.3667  169.5415 C.3     1  UNL1        0.0689
      8 N         138.8176  139.6152  168.8273 N.3     1  UNL1       -0.2972
      9 C         139.1007  139.6802  167.3557 C.3     1  UNL1        0.0726
     10 H         137.9126  140.0421  169.0249 H       1  UNL1        0.1233
     11 CL        137.9041  138.4938  162.0558 Cl      1  UNL1       -0.0814
     12 C         138.5180  138.9883  163.3319 C.ar    1  UNL1        0.0682
     13 C         139.4620  138.1109  164.0993 C.ar    1  UNL1        0.0119
     14 C         140.0760  138.6054  165.3755 C.ar    1  UNL1       -0.0033
     15 C         139.7458  139.9774  165.8842 C.ar    1  UNL1       -0.0206
     16 C         138.8018  140.8548  165.1167 C.ar    1  UNL1        0.0080
     17 C         138.1879  140.3602  163.8407 C.ar    1  UNL1        0.0679
     18 CL        137.2439  141.2376  163.0732 Cl      1  UNL1       -0.0814
@<TRIPOS>BOND
     1    11    12    1
     2    12    13   ar
     3    13    14   ar
     4    14    15   ar
     5     1    15    1
     6     1     2    1
     7     2     3    1
     8     3     4    1
     9     4     5    1
    10     6     5    1
    11     6     7    1
    12     7     8    1
    13     8     9    1
    14    15    16   ar
    15    16    17   ar
    16    17    18    1
    17    17    12   ar
    18     6     1    1
    19     9     1    1
    20     8    10    1
@<TRIPOS>MOLECULE
*****
 18 20 0 0 0
SMALL
GASTEIGER

@<TRIPOS>ATOM
      1 C         139.5968  143.2053  164.3378 C.3     1  UNL1        0.0347
      2 C         139.3147  141.8690  164.9580 C.3     1  UNL1        0.0054
      3 C         138.2141  141.0072  164.4142 C.3     1  UNL1        0.0004
      4 C         137.3955  141.4816  163.2503 C.3     1  UNL1        0.0001
      5 C         137.6775  142.8180  162.6301 C.3     1  UNL1        0.0017
      6 C         138.7782  143.6798  163.1739 C.3     1  UNL1        0.0208
      7 C         139.2845  145.0335  162.7722 C.3     1  UNL1        0.0689
      8 N         140.4160  145.3956  163.6880 N.3     1  UNL1       -0.2972
      9 C         140.6090  144.2658  164.6555 C.3     1  UNL1        0.0726
     10 H         140.1904  146.2512  164.1954 H       1  UNL1        0.1233
     11 CL        143.1870  141.8486  168.9497 Cl      1  UNL1       -0.0814
     12 C         142.2894  142.1878  167.7967 C.ar    1  UNL1        0.0682
     13 C         142.7500  141.9426  166.3904 C.ar    1  UNL1        0.0119
     14 C         141.8524  142.2818  165.2374 C.ar    1  UNL1       -0.0033
     15 C         140.4943  142.8661  165.4908 C.ar    1  UNL1       -0.0206
     16 C         140.0338  143.1113  166.8972 C.ar    1  UNL1        0.0080
     17 C         140.9314  142.7721  168.0501 C.ar    1  UNL1        0.0679
     18 CL        140.4709  143.0172  169.4564 Cl      1  UNL1       -0.0814
@<TRIPOS>BOND
     1    11    12    1
     2    12    13   ar
     3    13    14   ar
     4    14    15   ar
     5     1    15    1
     6     1     2    1
     7     2     3    1
     8     3     4    1
     9     4     5    1
    10     6     5    1
    11     6     7    1
    12     7     8    1
    13     8     9    1
    14    15    16   ar
    15    16    17   ar
    16    17    18    1
    17    17    12   ar
    18     6     1    1
    19     9     1    1
    20     8    10    1
