@<TRIPOS>MOLECULE
*****
 19 20 0 0 0
SMALL
GASTEIGER

@<TRIPOS>ATOM
      1 C         140.4930  140.4031  167.2316 C.ar    1  UNL1        0.0511
      2 C         141.8662  139.9202  166.8696 C.ar    1  UNL1        0.0163
      3 C         142.7469  139.3086  167.9185 C.ar    1  UNL1        0.0253
      4 C         142.2545  139.1799  169.3295 C.ar    1  UNL1        0.1365
      5 C         140.8813  139.6628  169.6915 C.ar    1  UNL1        0.1541
      6 O         140.3888  139.5342  171.1026 O.3     1  UNL1       -0.5039
      7 C         140.0006  140.2744  168.6426 C.ar    1  UNL1        0.0527
      8 H         140.9390  139.1521  171.7578 H       1  UNL1        0.2923
      9 C         138.5361  140.1944  165.5355 C.3     1  UNL1        0.1122
     10 N         139.6122  141.0147  166.1827 N.pl3   1  UNL1       -0.3040
     11 C         139.8077  142.4466  165.7810 C.3     1  UNL1        0.1122
     12 N         143.1352  138.5684  170.3784 N.2     1  UNL1       -0.1435
     13 N         143.7063  137.1968  170.1717 N.2     1  UNL1       -0.1284
     14 C         144.5871  136.5853  171.2207 C.ar    1  UNL1        0.1838
     15 C         144.4614  135.1268  171.5483 C.ar    1  UNL1        0.0406
     16 C         145.3422  134.5153  172.5973 C.ar    1  UNL1        0.0048
     17 C         146.3486  135.3621  173.3185 C.ar    1  UNL1        0.0208
     18 C         146.4742  136.8204  172.9908 C.ar    1  UNL1        0.1006
     19 N         145.5934  137.4320  171.9419 N.ar    1  UNL1       -0.2236
@<TRIPOS>BOND
     1     9    10    1
     2    10    11    1
     3    10     1    1
     4     1     2   ar
     5     2     3   ar
     6     3     4   ar
     7     4    12    1
     8    12    13    2
     9    13    14    1
    10    14    15   ar
    11    15    16   ar
    12    16    17   ar
    13    17    18   ar
    14    18    19   ar
    15     4     5   ar
    16     5     6    1
    17     5     7   ar
    18     7     1   ar
    19    19    14   ar
    20     6     8    1
@<TRIPOS>MOLECULE
*****
 19 20 0 0 0
SMALL
GASTEIGER

@<TRIPOS>ATOM
      1 C         140.3983  141.9200  167.3522 C.ar    1  UNL1        0.0511
      2 C         139.7022  140.6276  167.0439 C.ar    1  UNL1        0.0163
      3 C         139.0616  139.8389  168.1474 C.ar    1  UNL1        0.0253
      4 C         139.1172  140.3426  169.5591 C.ar    1  UNL1        0.1365
      5 C         139.8133  141.6350  169.8675 C.ar    1  UNL1        0.1541
      6 O         139.8689  142.1387  171.2793 O.3     1  UNL1       -0.5039
      7 C         140.4539  142.4237  168.7640 C.ar    1  UNL1        0.0527
      8 H         139.4688  141.6461  171.9686 H       1  UNL1        0.2923
      9 C         142.5140  142.5928  166.0028 C.3     1  UNL1        0.1122
     10 N         141.0389  142.7086  166.2487 N.pl3   1  UNL1       -0.3040
     11 C         140.2043  143.6131  165.3912 C.3     1  UNL1        0.1122
     12 N         138.4766  139.5539  170.6626 N.2     1  UNL1       -0.1435
     13 N         137.1292  138.9288  170.4532 N.2     1  UNL1       -0.1284
     14 C         136.4887  138.1401  171.5567 C.ar    1  UNL1        0.1838
     15 C         135.2239  138.6336  172.1947 C.ar    1  UNL1        0.0406
     16 C         134.5833  137.8449  173.2981 C.ar    1  UNL1        0.0048
     17 C         135.2075  136.5628  173.7636 C.ar    1  UNL1        0.0208
     18 C         136.4722  136.0694  173.1256 C.ar    1  UNL1        0.1006
     19 N         137.1128  136.8581  172.0222 N.ar    1  UNL1       -0.2236
@<TRIPOS>BOND
     1     9    10    1
     2    10    11    1
     3    10     1    1
     4     1     2   ar
     5     2     3   ar
     6     3     4   ar
     7     4    12    1
     8    12    13    2
     9    13    14    1
    10    14    15   ar
    11    15    16   ar
    12    16    17   ar
    13    17    18   ar
    14    18    19   ar
    15     4     5   ar
    16     5     6    1
    17     5     7   ar
    18     7     1   ar
    19    19    14   ar
    20     6     8    1
@<TRIPOS>MOLECULE
*****
 19 20 0 0 0
SMALL
GASTEIGER

@<TRIPOS>ATOM
      1 C         141.1777  141.1772  168.5558 C.ar    1  UNL1        0.0511
      2 C         142.6079  140.8339  168.8499 C.ar    1  UNL1        0.0163
      3 C         143.4516  141.7694  169.6642 C.ar    1  UNL1        0.0253
      4 C         142.8651  143.0482  170.1843 C.ar    1  UNL1        0.1365
      5 C         141.4349  143.3915  169.8901 C.ar    1  UNL1        0.1541
      6 O         140.8483  144.6704  170.4102 O.3     1  UNL1       -0.5039
      7 C         140.5912  142.4560  169.0759 C.ar    1  UNL1        0.0527
      8 H         141.3753  145.2548  170.9188 H       1  UNL1        0.2923
      9 C         140.7918  139.8119  166.3793 C.3     1  UNL1        0.1122
     10 N         140.3340  140.2417  167.7415 N.pl3   1  UNL1       -0.3040
     11 C         139.0325  139.7359  168.2895 C.3     1  UNL1        0.1122
     12 N         143.7088  143.9837  170.9985 N.2     1  UNL1       -0.1435
     13 N         145.1990  143.9904  170.8283 N.2     1  UNL1       -0.1284
     14 C         146.0427  144.9259  171.6425 C.ar    1  UNL1        0.1838
     15 C         145.7578  146.3986  171.6274 C.ar    1  UNL1        0.0406
     16 C         146.6015  147.3341  172.4416 C.ar    1  UNL1        0.0048
     17 C         147.7301  146.7970  173.2710 C.ar    1  UNL1        0.0208
     18 C         148.0150  145.3244  173.2861 C.ar    1  UNL1        0.1006
     19 N         147.1713  144.3889  172.4719 N.ar    1  UNL1       -0.2236
@<TRIPOS>BOND
     1     9    10    1
     2    10    11    1
     3    10     1    1
     4     1     2   ar
     5     2     3   ar
     6     3     4   ar
     7     4    12    1
     8    12    13    2
     9    13    14    1
    10    14    15   ar
    11    15    16   ar
    12    16    17   ar
    13    17    18   ar
    14    18    19   ar
    15     4     5   ar
    16     5     6    1
    17     5     7   ar
    18     7     1   ar
    19    19    14   ar
    20     6     8    1
@<TRIPOS>MOLECULE
*****
 19 20 0 0 0
SMALL
GASTEIGER

@<TRIPOS>ATOM
      1 C         143.7361  142.9162  160.6108 C.ar    1  UNL1        0.0511
      2 C         142.5095  143.1710  161.4356 C.ar    1  UNL1        0.0163
      3 C         142.5451  142.9540  162.9194 C.ar    1  UNL1        0.0253
      4 C         143.8073  142.4822  163.5783 C.ar    1  UNL1        0.1365
      5 C         145.0339  142.2275  162.7535 C.ar    1  UNL1        0.1541
      6 O         146.2962  141.7557  163.4124 O.3     1  UNL1       -0.5039
      7 C         144.9983  142.4445  161.2697 C.ar    1  UNL1        0.0527
      8 H         146.3185  141.6201  164.3392 H       1  UNL1        0.2923
      9 C         144.7905  142.5749  158.2610 C.3     1  UNL1        0.1122
     10 N         143.7005  143.1332  159.1270 N.pl3   1  UNL1       -0.3040
     11 C         142.5748  143.9086  158.5092 C.3     1  UNL1        0.1122
     12 N         143.8429  142.2652  165.0621 N.2     1  UNL1       -0.1435
     13 N         142.8212  141.3827  165.7158 N.2     1  UNL1       -0.1284
     14 C         142.8568  141.1657  167.1996 C.ar    1  UNL1        0.1838
     15 C         143.3666  142.2485  168.1039 C.ar    1  UNL1        0.0406
     16 C         143.4022  142.0315  169.5877 C.ar    1  UNL1        0.0048
     17 C         142.9280  140.7317  170.1671 C.ar    1  UNL1        0.0208
     18 C         142.4183  139.6490  169.2628 C.ar    1  UNL1        0.1006
     19 N         142.3827  139.8660  167.7790 N.ar    1  UNL1       -0.2236
@<TRIPOS>BOND
     1     9    10    1
     2    10    11    1
     3    10     1    1
     4     1     2   ar
     5     2     3   ar
     6     3     4   ar
     7     4    12    1
     8    12    13    2
     9    13    14    1
    10    14    15   ar
    11    15    16   ar
    12    16    17   ar
    13    17    18   ar
    14    18    19   ar
    15     4     5   ar
    16     5     6    1
    17     5     7   ar
    18     7     1   ar
    19    19    14   ar
    20     6     8    1
@<TRIPOS>MOLECULE
*****
 19 20 0 0 0
SMALL
GASTEIGER

@<TRIPOS>ATOM
      1 C         141.0992  145.3079  155.6435 C.ar    1  UNL1        0.0511
      2 C         139.9096  144.3962  155.7038 C.ar    1  UNL1        0.0163
      3 C         139.3891  143.9292  157.0309 C.ar    1  UNL1        0.0253
      4 C         140.0582  144.3739  158.2975 C.ar    1  UNL1        0.1365
      5 C         141.2478  145.2855  158.2372 C.ar    1  UNL1        0.1541
      6 O         141.9170  145.7302  159.5039 O.3     1  UNL1       -0.5039
      7 C         141.7683  145.7525  156.9102 C.ar    1  UNL1        0.0527
      8 H         141.5919  145.4385  160.3329 H       1  UNL1        0.2923
      9 C         140.8835  146.8358  153.5533 C.3     1  UNL1        0.1122
     10 N         141.6197  145.7749  154.3164 N.pl3   1  UNL1       -0.3040
     11 C         142.8763  145.1809  153.7525 C.3     1  UNL1        0.1122
     12 N         139.5378  143.9069  159.6246 N.2     1  UNL1       -0.1435
     13 N         139.5289  144.8414  160.7978 N.2     1  UNL1       -0.1284
     14 C         139.0084  144.3744  162.1248 C.ar    1  UNL1        0.1838
     15 C         138.1552  143.1433  162.2046 C.ar    1  UNL1        0.0406
     16 C         137.6347  142.6763  163.5317 C.ar    1  UNL1        0.0048
     17 C         137.9675  143.4404  164.7788 C.ar    1  UNL1        0.0208
     18 C         138.8206  144.6715  164.6990 C.ar    1  UNL1        0.1006
     19 N         139.3411  145.1385  163.3719 N.ar    1  UNL1       -0.2236
@<TRIPOS>BOND
     1     9    10    1
     2    10    11    1
     3    10     1    1
     4     1     2   ar
     5     2     3   ar
     6     3     4   ar
     7     4    12    1
     8    12    13    2
     9    13    14    1
    10    14    15   ar
    11    15    16   ar
    12    16    17   ar
    13    17    18   ar
    14    18    19   ar
    15     4     5   ar
    16     5     6    1
    17     5     7   ar
    18     7     1   ar
    19    19    14   ar
    20     6     8    1
@<TRIPOS>MOLECULE
*****
 19 20 0 0 0
SMALL
GASTEIGER

@<TRIPOS>ATOM
      1 C         134.3542  140.5049  154.5407 C.ar    1  UNL1        0.0511
      2 C         133.1854  141.4450  154.5430 C.ar    1  UNL1        0.0163
      3 C         132.0865  141.2729  155.5494 C.ar    1  UNL1        0.0253
      4 C         132.1564  140.1607  156.5535 C.ar    1  UNL1        0.1365
      5 C         133.3253  139.2207  156.5512 C.ar    1  UNL1        0.1541
      6 O         133.3953  138.1085  157.5553 O.3     1  UNL1       -0.5039
      7 C         134.4242  139.3928  155.5448 C.ar    1  UNL1        0.0527
      8 H         132.7088  138.0010  158.1839 H       1  UNL1        0.2923
      9 C         136.7902  140.0385  153.7673 C.3     1  UNL1        0.1122
     10 N         135.4531  140.6770  153.5343 N.pl3   1  UNL1       -0.3040
     11 C         135.2149  141.4877  152.2950 C.3     1  UNL1        0.1122
     12 N         131.0575  139.9886  157.5598 N.2     1  UNL1       -0.1435
     13 N         130.4418  138.6378  157.7744 N.2     1  UNL1       -0.1284
     14 C         129.3429  138.4657  158.7808 C.ar    1  UNL1        0.1838
     15 C         128.8018  139.6586  159.5117 C.ar    1  UNL1        0.0406
     16 C         127.7029  139.4865  160.5181 C.ar    1  UNL1        0.0048
     17 C         127.1451  138.1215  160.7935 C.ar    1  UNL1        0.0208
     18 C         127.6862  136.9287  160.0625 C.ar    1  UNL1        0.1006
     19 N         128.7851  137.1008  159.0562 N.ar    1  UNL1       -0.2236
@<TRIPOS>BOND
     1     9    10    1
     2    10    11    1
     3    10     1    1
     4     1     2   ar
     5     2     3   ar
     6     3     4   ar
     7     4    12    1
     8    12    13    2
     9    13    14    1
    10    14    15   ar
    11    15    16   ar
    12    16    17   ar
    13    17    18   ar
    14    18    19   ar
    15     4     5   ar
    16     5     6    1
    17     5     7   ar
    18     7     1   ar
    19    19    14   ar
    20     6     8    1
@<TRIPOS>MOLECULE
*****
 19 20 0 0 0
SMALL
GASTEIGER

@<TRIPOS>ATOM
      1 C         138.4180  139.4555  164.8245 C.ar    1  UNL1        0.0511
      2 C         138.6708  138.3278  163.8683 C.ar    1  UNL1        0.0163
      3 C         138.4595  138.5303  162.3971 C.ar    1  UNL1        0.0253
      4 C         137.9956  139.8605  161.8821 C.ar    1  UNL1        0.1365
      5 C         137.7428  140.9882  162.8383 C.ar    1  UNL1        0.1541
      6 O         137.2788  142.3185  162.3233 O.3     1  UNL1       -0.5039
      7 C         137.9541  140.7857  164.3095 C.ar    1  UNL1        0.0527
      8 H         137.1469  142.4450  161.4043 H       1  UNL1        0.2923
      9 C         139.8324  139.8438  166.9689 C.3     1  UNL1        0.1122
     10 N         138.6293  139.2530  166.2956 N.pl3   1  UNL1       -0.3040
     11 C         137.6373  138.4597  167.0936 C.3     1  UNL1        0.1122
     12 N         137.7843  140.0630  160.4109 N.2     1  UNL1       -0.1435
     13 N         138.3145  141.2951  159.7397 N.2     1  UNL1       -0.1284
     14 C         138.1033  141.4976  158.2685 C.ar    1  UNL1        0.1838
     15 C         138.6116  142.7417  157.6020 C.ar    1  UNL1        0.0406
     16 C         138.4004  142.9441  156.1309 C.ar    1  UNL1        0.0048
     17 C         137.6808  141.9026  155.3261 C.ar    1  UNL1        0.0208
     18 C         137.1726  140.6586  155.9926 C.ar    1  UNL1        0.1006
     19 N         137.3838  140.4562  157.4638 N.ar    1  UNL1       -0.2236
@<TRIPOS>BOND
     1     9    10    1
     2    10    11    1
     3    10     1    1
     4     1     2   ar
     5     2     3   ar
     6     3     4   ar
     7     4    12    1
     8    12    13    2
     9    13    14    1
    10    14    15   ar
    11    15    16   ar
    12    16    17   ar
    13    17    18   ar
    14    18    19   ar
    15     4     5   ar
    16     5     6    1
    17     5     7   ar
    18     7     1   ar
    19    19    14   ar
    20     6     8    1
@<TRIPOS>MOLECULE
*****
 19 20 0 0 0
SMALL
GASTEIGER

@<TRIPOS>ATOM
      1 C         142.5393  133.0264  155.7526 C.ar    1  UNL1        0.0511
      2 C         143.0561  133.5127  157.0741 C.ar    1  UNL1        0.0163
      3 C         143.4535  134.9494  157.2413 C.ar    1  UNL1        0.0253
      4 C         143.3340  135.8998  156.0870 C.ar    1  UNL1        0.1365
      5 C         142.8173  135.4135  154.7655 C.ar    1  UNL1        0.1541
      6 O         142.6978  136.3640  153.6112 O.3     1  UNL1       -0.5039
      7 C         142.4199  133.9768  154.5983 C.ar    1  UNL1        0.0527
      8 H         142.9461  137.2614  153.7156 H       1  UNL1        0.2923
      9 C         142.8720  130.5171  156.3380 C.3     1  UNL1        0.1122
     10 N         142.1419  131.5897  155.5853 N.pl3   1  UNL1       -0.3040
     11 C         141.0145  131.2256  154.6654 C.3     1  UNL1        0.1122
     12 N         143.7314  137.3365  156.2543 N.2     1  UNL1       -0.1435
     13 N         144.6942  137.9654  155.2912 N.2     1  UNL1       -0.1284
     14 C         145.0916  139.4021  155.4584 C.ar    1  UNL1        0.1838
     15 C         145.5290  140.2027  154.2678 C.ar    1  UNL1        0.0406
     16 C         145.9264  141.6394  154.4350 C.ar    1  UNL1        0.0048
     17 C         145.8863  142.2755  155.7929 C.ar    1  UNL1        0.0208
     18 C         145.4489  141.4748  156.9835 C.ar    1  UNL1        0.1006
     19 N         145.0515  140.0381  156.8163 N.ar    1  UNL1       -0.2236
@<TRIPOS>BOND
     1     9    10    1
     2    10    11    1
     3    10     1    1
     4     1     2   ar
     5     2     3   ar
     6     3     4   ar
     7     4    12    1
     8    12    13    2
     9    13    14    1
    10    14    15   ar
    11    15    16   ar
    12    16    17   ar
    13    17    18   ar
    14    18    19   ar
    15     4     5   ar
    16     5     6    1
    17     5     7   ar
    18     7     1   ar
    19    19    14   ar
    20     6     8    1
@<TRIPOS>MOLECULE
*****
 19 20 0 0 0
SMALL
GASTEIGER

@<TRIPOS>ATOM
      1 C         144.2938  141.1166  161.4648 C.ar    1  UNL1        0.0511
      2 C         143.9100  141.6630  160.1217 C.ar    1  UNL1        0.0163
      3 C         143.3451  140.7501  159.0741 C.ar    1  UNL1        0.0253
      4 C         143.1640  139.2907  159.3696 C.ar    1  UNL1        0.1365
      5 C         143.5478  138.7443  160.7127 C.ar    1  UNL1        0.1541
      6 O         143.3667  137.2848  161.0083 O.3     1  UNL1       -0.5039
      7 C         144.1127  139.6572  161.7603 C.ar    1  UNL1        0.0527
      8 H         143.0138  136.7145  160.3539 H       1  UNL1        0.2923
      9 C         145.7734  141.4838  163.5686 C.3     1  UNL1        0.1122
     10 N         144.8587  142.0295  162.5124 N.pl3   1  UNL1       -0.3040
     11 C         144.5089  143.4881  162.5038 C.3     1  UNL1        0.1122
     12 N         142.5991  138.3778  158.3220 N.2     1  UNL1       -0.1435
     13 N         143.1373  136.9859  158.1709 N.2     1  UNL1       -0.1284
     14 C         142.5724  136.0729  157.1233 C.ar    1  UNL1        0.1838
     15 C         141.4924  136.5630  156.2047 C.ar    1  UNL1        0.0406
     16 C         140.9275  135.6500  155.1571 C.ar    1  UNL1        0.0048
     17 C         141.4426  134.2471  155.0281 C.ar    1  UNL1        0.0208
     18 C         142.5225  133.7572  155.9466 C.ar    1  UNL1        0.1006
     19 N         143.0873  134.6701  156.9942 N.ar    1  UNL1       -0.2236
@<TRIPOS>BOND
     1     9    10    1
     2    10    11    1
     3    10     1    1
     4     1     2   ar
     5     2     3   ar
     6     3     4   ar
     7     4    12    1
     8    12    13    2
     9    13    14    1
    10    14    15   ar
    11    15    16   ar
    12    16    17   ar
    13    17    18   ar
    14    18    19   ar
    15     4     5   ar
    16     5     6    1
    17     5     7   ar
    18     7     1   ar
    19    19    14   ar
    20     6     8    1
