@<TRIPOS>MOLECULE
*****
 34 36 0 0 0
SMALL
GASTEIGER

@<TRIPOS>ATOM
      1 C         142.0055  143.5000  162.7780 C.3     1  UNL1        0.1102
      2 C         140.6845  143.9955  163.2872 C.3     1  UNL1        0.0296
      3 C         139.8742  143.1461  164.2210 C.3     1  UNL1        0.0730
      4 N         140.3850  141.8011  164.6455 N.3     1  UNL1       -0.2689
      5 C         141.7060  141.3056  164.1364 C.3     1  UNL1        0.0730
      6 C         142.5163  142.1551  163.2026 C.3     1  UNL1        0.0296
      7 C         143.3060  143.4677  162.0313 C.2     1  UNL1        0.3177
      8 O         144.3750  144.4727  162.3432 O.2     1  UNL1       -0.2501
      9 C         144.7140  142.5502  160.0500 C.3     1  UNL1        0.2556
     10 O         143.5375  142.4305  160.9728 O.3     1  UNL1       -0.4444
     11 C         141.9463  144.8337  162.0942 C.3     1  UNL1        0.1002
     12 N         142.0407  144.9149  160.5994 N.am    1  UNL1       -0.3003
     13 C         140.8772  145.4242  159.8010 C.2     1  UNL1        0.2461
     14 O         139.6196  145.8521  160.4975 O.2     1  UNL1       -0.2701
     15 H         142.8661  144.6341  160.1422 H       1  UNL1        0.1498
     16 C         140.9716  145.5054  158.3062 C.ar    1  UNL1        0.0594
     17 C         142.0888  144.8100  157.5863 C.ar    1  UNL1        0.0416
     18 C         142.1831  144.8913  156.0915 C.ar    1  UNL1        0.1419
     19 C         141.1602  145.6678  155.3165 C.ar    1  UNL1        0.0738
     20 C         140.0429  146.3632  156.0364 C.ar    1  UNL1        0.1419
     21 C         139.9486  146.2820  157.5312 C.ar    1  UNL1        0.0416
     22 O         143.3004  144.1958  155.3716 O.3     1  UNL1       -0.4713
     23 C         143.6482  144.5909  153.9670 C.3     1  UNL1        0.2525
     24 O         139.0200  147.1398  155.2615 O.3     1  UNL1       -0.4713
     25 C         139.2164  148.6074  155.0213 C.3     1  UNL1        0.2525
     26 C         139.5747  140.9517  165.5793 C.3     1  UNL1        0.0992
     27 C         139.8054  141.0340  167.0591 C.ar    1  UNL1       -0.0031
     28 C         139.2419  139.9801  167.9658 C.ar    1  UNL1       -0.0027
     29 C         139.4726  140.0623  169.4457 C.ar    1  UNL1        0.0028
     30 C         140.2668  141.1984  170.0190 C.ar    1  UNL1        0.0369
     31 C         140.8303  142.2522  169.1123 C.ar    1  UNL1        0.1385
     32 C         140.5996  142.1700  167.6325 C.ar    1  UNL1        0.0340
     33 O         141.6244  143.3882  169.6857 O.3     1  UNL1       -0.4714
     34 C         142.8315  143.1082  170.5310 C.3     1  UNL1        0.2525
@<TRIPOS>BOND
     1     9    10    1
     2    10     7    1
     3     7     8    2
     4     7     1    1
     5     1    11    1
     6    11    12    1
     7    12    13   am
     8    13    14    2
     9    13    16    1
    10    16    17   ar
    11    17    18   ar
    12    18    22    1
    13    22    23    1
    14    18    19   ar
    15    19    20   ar
    16    20    24    1
    17    24    25    1
    18    20    21   ar
    19     1     2    1
    20     2     3    1
    21     3     4    1
    22     4    26    1
    23    26    27    1
    24    27    28   ar
    25    28    29   ar
    26    29    30   ar
    27    30    31   ar
    28    31    33    1
    29    33    34    1
    30    31    32   ar
    31     4     5    1
    32     5     6    1
    33     6     1    1
    34    21    16   ar
    35    32    27   ar
    36    12    15    1
@<TRIPOS>MOLECULE
*****
 34 36 0 0 0
SMALL
GASTEIGER

@<TRIPOS>ATOM
      1 C         142.2419  143.8760  163.7326 C.3     1  UNL1        0.1102
      2 C         140.8027  144.1233  164.0755 C.3     1  UNL1        0.0296
      3 C         140.1171  143.2655  165.0973 C.3     1  UNL1        0.0730
      4 N         140.8707  142.1604  165.7762 N.3     1  UNL1       -0.2689
      5 C         142.3098  141.9131  165.4333 C.3     1  UNL1        0.0730
      6 C         142.9955  142.7709  164.4115 C.3     1  UNL1        0.0296
      7 C         143.5809  144.0313  163.0745 C.2     1  UNL1        0.3177
      8 O         144.2283  145.3823  163.0011 O.2     1  UNL1       -0.2501
      9 C         144.7672  142.8729  161.0744 C.3     1  UNL1        0.2556
     10 O         144.2724  142.8355  162.4899 O.3     1  UNL1       -0.4444
     11 C         141.9533  145.0350  162.8251 C.3     1  UNL1        0.1002
     12 N         142.1036  144.8808  161.3407 N.am    1  UNL1       -0.3003
     13 C         140.9881  145.2944  160.4270 C.2     1  UNL1        0.2461
     14 O         139.7225  145.8621  160.9977 O.2     1  UNL1       -0.2701
     15 H         142.9343  144.5082  160.9661 H       1  UNL1        0.1498
     16 C         141.1384  145.1402  158.9425 C.ar    1  UNL1        0.0594
     17 C         142.1971  144.2351  158.3858 C.ar    1  UNL1        0.0416
     18 C         142.3474  144.0809  156.9014 C.ar    1  UNL1        0.1419
     19 C         141.4390  144.8318  155.9736 C.ar    1  UNL1        0.0738
     20 C         140.3802  145.7369  156.5302 C.ar    1  UNL1        0.1419
     21 C         140.2299  145.8911  158.0147 C.ar    1  UNL1        0.0416
     22 O         143.4062  143.1758  156.3447 O.3     1  UNL1       -0.4713
     23 C         143.0970  141.7314  156.0841 C.3     1  UNL1        0.2525
     24 O         139.4717  146.4878  155.6024 O.3     1  UNL1       -0.4713
     25 C         140.0104  147.6194  154.7782 C.3     1  UNL1        0.2525
     26 C         140.1851  141.3026  166.7980 C.3     1  UNL1        0.0992
     27 C         139.5541  140.0055  166.3867 C.ar    1  UNL1       -0.0031
     28 C         138.4770  139.3939  167.2328 C.ar    1  UNL1       -0.0027
     29 C         137.8459  138.0966  166.8215 C.ar    1  UNL1        0.0028
     30 C         138.2920  137.4111  165.5642 C.ar    1  UNL1        0.0369
     31 C         139.3691  138.0227  164.7181 C.ar    1  UNL1        0.1385
     32 C         140.0001  139.3199  165.1294 C.ar    1  UNL1        0.0340
     33 O         139.8151  137.3371  163.4607 O.3     1  UNL1       -0.4714
     34 C         141.2310  137.4840  162.9880 C.3     1  UNL1        0.2525
@<TRIPOS>BOND
     1     9    10    1
     2    10     7    1
     3     7     8    2
     4     7     1    1
     5     1    11    1
     6    11    12    1
     7    12    13   am
     8    13    14    2
     9    13    16    1
    10    16    17   ar
    11    17    18   ar
    12    18    22    1
    13    22    23    1
    14    18    19   ar
    15    19    20   ar
    16    20    24    1
    17    24    25    1
    18    20    21   ar
    19     1     2    1
    20     2     3    1
    21     3     4    1
    22     4    26    1
    23    26    27    1
    24    27    28   ar
    25    28    29   ar
    26    29    30   ar
    27    30    31   ar
    28    31    33    1
    29    33    34    1
    30    31    32   ar
    31     4     5    1
    32     5     6    1
    33     6     1    1
    34    21    16   ar
    35    32    27   ar
    36    12    15    1
@<TRIPOS>MOLECULE
*****
 34 36 0 0 0
SMALL
GASTEIGER

@<TRIPOS>ATOM
      1 C         142.7210  143.7679  163.7977 C.3     1  UNL1        0.1102
      2 C         141.3143  143.8493  164.3119 C.3     1  UNL1        0.0296
      3 C         140.8635  142.9338  165.4113 C.3     1  UNL1        0.0730
      4 N         141.8195  141.9369  165.9964 N.3     1  UNL1       -0.2689
      5 C         143.2263  141.8556  165.4822 C.3     1  UNL1        0.0730
      6 C         143.6770  142.7711  164.3828 C.3     1  UNL1        0.0296
      7 C         143.9432  144.0692  162.9818 C.2     1  UNL1        0.3177
      8 O         144.3586  145.4918  162.7505 O.2     1  UNL1       -0.2501
      9 C         144.6991  142.6765  160.9229 C.3     1  UNL1        0.2556
     10 O         144.7498  142.9478  162.3972 O.3     1  UNL1       -0.4444
     11 C         142.1894  144.8694  162.9292 C.3     1  UNL1        0.1002
     12 N         141.8246  144.5890  161.5015 N.am    1  UNL1       -0.3003
     13 C         140.6089  145.2285  160.8986 C.2     1  UNL1        0.2461
     14 O         139.7583  146.1483  161.7234 O.2     1  UNL1       -0.2701
     15 H         142.3829  143.9852  160.9602 H       1  UNL1        0.1498
     16 C         140.2441  144.9481  159.4710 C.ar    1  UNL1        0.0594
     17 C         140.4067  146.0171  158.4314 C.ar    1  UNL1        0.0416
     18 C         140.0418  145.7367  157.0038 C.ar    1  UNL1        0.1419
     19 C         139.5143  144.3873  156.6156 C.ar    1  UNL1        0.0738
     20 C         139.3516  143.3182  157.6552 C.ar    1  UNL1        0.1419
     21 C         139.7165  143.5985  159.0828 C.ar    1  UNL1        0.0416
     22 O         140.2045  146.8058  155.9642 O.3     1  UNL1       -0.4713
     23 C         139.0263  147.2392  155.1433 C.3     1  UNL1        0.2525
     24 O         138.8241  141.9687  157.2670 O.3     1  UNL1       -0.4713
     25 C         138.1723  141.7744  155.9301 C.3     1  UNL1        0.2525
     26 C         141.3688  141.0214  167.0958 C.3     1  UNL1        0.0992
     27 C         140.2253  140.0785  166.8650 C.ar    1  UNL1       -0.0031
     28 C         139.1497  139.9363  167.9009 C.ar    1  UNL1       -0.0027
     29 C         138.0062  138.9933  167.6701 C.ar    1  UNL1        0.0028
     30 C         137.9382  138.1926  166.4036 C.ar    1  UNL1        0.0369
     31 C         139.0138  138.3348  165.3677 C.ar    1  UNL1        0.1385
     32 C         140.1573  139.2777  165.5985 C.ar    1  UNL1        0.0340
     33 O         138.9458  137.5340  164.1012 O.3     1  UNL1       -0.4714
     34 C         139.9498  137.7672  163.0115 C.3     1  UNL1        0.2525
@<TRIPOS>BOND
     1     9    10    1
     2    10     7    1
     3     7     8    2
     4     7     1    1
     5     1    11    1
     6    11    12    1
     7    12    13   am
     8    13    14    2
     9    13    16    1
    10    16    17   ar
    11    17    18   ar
    12    18    22    1
    13    22    23    1
    14    18    19   ar
    15    19    20   ar
    16    20    24    1
    17    24    25    1
    18    20    21   ar
    19     1     2    1
    20     2     3    1
    21     3     4    1
    22     4    26    1
    23    26    27    1
    24    27    28   ar
    25    28    29   ar
    26    29    30   ar
    27    30    31   ar
    28    31    33    1
    29    33    34    1
    30    31    32   ar
    31     4     5    1
    32     5     6    1
    33     6     1    1
    34    21    16   ar
    35    32    27   ar
    36    12    15    1
@<TRIPOS>MOLECULE
*****
 34 36 0 0 0
SMALL
GASTEIGER

@<TRIPOS>ATOM
      1 C         143.2496  139.3220  159.8126 C.3     1  UNL1        0.1102
      2 C         142.4932  138.0947  160.2267 C.3     1  UNL1        0.0296
      3 C         142.3249  137.7728  161.6820 C.3     1  UNL1        0.0730
      4 N         142.9131  138.6783  162.7233 N.3     1  UNL1       -0.2689
      5 C         143.6695  139.9056  162.3092 C.3     1  UNL1        0.0730
      6 C         143.8377  140.2275  160.8539 C.3     1  UNL1        0.0296
      7 C         143.8775  140.3602  158.9305 C.2     1  UNL1        0.3177
      8 O         144.6012  139.9465  157.6834 O.2     1  UNL1       -0.2501
      9 C         143.8452  142.8602  158.2245 C.3     1  UNL1        0.2556
     10 O         143.7816  141.8119  159.2954 O.3     1  UNL1       -0.4444
     11 C         142.8795  138.7771  158.4650 C.3     1  UNL1        0.1002
     12 N         142.9871  137.3054  158.1957 N.am    1  UNL1       -0.3003
     13 C         142.4821  136.7410  156.9009 C.2     1  UNL1        0.2461
     14 O         141.8694  137.6482  155.8755 O.2     1  UNL1       -0.2701
     15 H         143.3893  136.7100  158.8687 H       1  UNL1        0.1498
     16 C         142.5898  135.2693  156.6316 C.ar    1  UNL1        0.0594
     17 C         141.7437  134.6379  155.5661 C.ar    1  UNL1        0.0416
     18 C         141.8513  133.1662  155.2968 C.ar    1  UNL1        0.1419
     19 C         142.8051  132.3259  156.0930 C.ar    1  UNL1        0.0738
     20 C         143.6513  132.9572  157.1587 C.ar    1  UNL1        0.1419
     21 C         143.5436  134.4289  157.4280 C.ar    1  UNL1        0.0416
     22 O         141.0052  132.5349  154.2311 O.3     1  UNL1       -0.4713
     23 C         141.1589  132.9606  152.8011 C.3     1  UNL1        0.2525
     24 O         144.6050  132.1169  157.9549 O.3     1  UNL1       -0.4713
     25 C         144.5622  130.6218  157.8412 C.3     1  UNL1        0.2525
     26 C         142.7448  138.3563  164.1786 C.3     1  UNL1        0.0992
     27 C         141.4000  138.4985  164.8276 C.ar    1  UNL1       -0.0031
     28 C         140.2820  137.5736  164.4470 C.ar    1  UNL1       -0.0027
     29 C         138.9371  137.7157  165.0960 C.ar    1  UNL1        0.0028
     30 C         138.7102  138.7827  166.1255 C.ar    1  UNL1        0.0369
     31 C         139.8282  139.7076  166.5061 C.ar    1  UNL1        0.1385
     32 C         141.1730  139.5654  165.8572 C.ar    1  UNL1        0.0340
     33 O         139.6011  140.7745  167.5357 O.3     1  UNL1       -0.4714
     34 C         139.5123  140.4090  168.9877 C.3     1  UNL1        0.2525
@<TRIPOS>BOND
     1     9    10    1
     2    10     7    1
     3     7     8    2
     4     7     1    1
     5     1    11    1
     6    11    12    1
     7    12    13   am
     8    13    14    2
     9    13    16    1
    10    16    17   ar
    11    17    18   ar
    12    18    22    1
    13    22    23    1
    14    18    19   ar
    15    19    20   ar
    16    20    24    1
    17    24    25    1
    18    20    21   ar
    19     1     2    1
    20     2     3    1
    21     3     4    1
    22     4    26    1
    23    26    27    1
    24    27    28   ar
    25    28    29   ar
    26    29    30   ar
    27    30    31   ar
    28    31    33    1
    29    33    34    1
    30    31    32   ar
    31     4     5    1
    32     5     6    1
    33     6     1    1
    34    21    16   ar
    35    32    27   ar
    36    12    15    1
@<TRIPOS>MOLECULE
*****
 34 36 0 0 0
SMALL
GASTEIGER

@<TRIPOS>ATOM
      1 C         138.3881  142.2295  161.8896 C.3     1  UNL1        0.1102
      2 C         138.1051  140.7574  161.9389 C.3     1  UNL1        0.0296
      3 C         138.2207  139.9293  160.6935 C.3     1  UNL1        0.0730
      4 N         138.6193  140.5735  159.3988 N.3     1  UNL1       -0.2689
      5 C         138.9023  142.0457  159.3495 C.3     1  UNL1        0.0730
      6 C         138.7867  142.8738  160.5949 C.3     1  UNL1        0.0296
      7 C         138.5524  143.6493  162.3448 C.2     1  UNL1        0.3177
      8 O         137.3873  144.3876  162.9342 O.2     1  UNL1       -0.2501
      9 C         139.9620  145.8286  162.2262 C.3     1  UNL1        0.2556
     10 O         139.8819  144.3308  162.2107 O.3     1  UNL1       -0.4444
     11 C         138.0465  142.0784  163.3423 C.3     1  UNL1        0.1002
     12 N         139.1378  142.0597  164.3713 N.am    1  UNL1       -0.3003
     13 C         139.1506  140.9988  165.4317 C.2     1  UNL1        0.2461
     14 O         138.0722  139.9567  165.4631 O.2     1  UNL1       -0.2701
     15 H         139.8456  142.7437  164.3507 H       1  UNL1        0.1498
     16 C         140.2419  140.9801  166.4607 C.ar    1  UNL1        0.0594
     17 C         141.1825  139.8140  166.5352 C.ar    1  UNL1        0.0416
     18 C         142.2737  139.7953  167.5642 C.ar    1  UNL1        0.1419
     19 C         142.4244  140.9426  168.5187 C.ar    1  UNL1        0.0738
     20 C         141.4837  142.1087  168.4441 C.ar    1  UNL1        0.1419
     21 C         140.3925  142.1274  167.4151 C.ar    1  UNL1        0.0416
     22 O         143.2144  138.6292  167.6388 O.3     1  UNL1       -0.4713
     23 C         143.9056  138.1429  166.3996 C.3     1  UNL1        0.2525
     24 O         141.6344  143.2560  169.3986 O.3     1  UNL1       -0.4713
     25 C         140.4182  143.9626  169.9199 C.3     1  UNL1        0.2525
     26 C         138.7349  139.7454  158.1535 C.3     1  UNL1        0.0992
     27 C         139.9839  138.9577  157.8898 C.ar    1  UNL1       -0.0031
     28 C         139.9710  137.8463  156.8825 C.ar    1  UNL1       -0.0027
     29 C         141.2200  137.0585  156.6188 C.ar    1  UNL1        0.0028
     30 C         142.4818  137.3821  157.3625 C.ar    1  UNL1        0.0369
     31 C         142.4947  138.4935  158.3699 C.ar    1  UNL1        0.1385
     32 C         141.2457  139.2812  158.6335 C.ar    1  UNL1        0.0340
     33 O         143.7565  138.8170  159.1135 O.3     1  UNL1       -0.4714
     34 C         143.8014  138.6865  160.6071 C.3     1  UNL1        0.2525
@<TRIPOS>BOND
     1     9    10    1
     2    10     7    1
     3     7     8    2
     4     7     1    1
     5     1    11    1
     6    11    12    1
     7    12    13   am
     8    13    14    2
     9    13    16    1
    10    16    17   ar
    11    17    18   ar
    12    18    22    1
    13    22    23    1
    14    18    19   ar
    15    19    20   ar
    16    20    24    1
    17    24    25    1
    18    20    21   ar
    19     1     2    1
    20     2     3    1
    21     3     4    1
    22     4    26    1
    23    26    27    1
    24    27    28   ar
    25    28    29   ar
    26    29    30   ar
    27    30    31   ar
    28    31    33    1
    29    33    34    1
    30    31    32   ar
    31     4     5    1
    32     5     6    1
    33     6     1    1
    34    21    16   ar
    35    32    27   ar
    36    12    15    1
@<TRIPOS>MOLECULE
*****
 34 36 0 0 0
SMALL
GASTEIGER

@<TRIPOS>ATOM
      1 C         142.1432  143.8801  163.3134 C.3     1  UNL1        0.1102
      2 C         140.8622  144.4144  163.8820 C.3     1  UNL1        0.0296
      3 C         140.1957  143.7063  165.0242 C.3     1  UNL1        0.0730
      4 N         140.8104  142.4640  165.5976 N.3     1  UNL1       -0.2689
      5 C         142.0914  141.9297  165.0290 C.3     1  UNL1        0.0730
      6 C         142.7579  142.6378  163.8868 C.3     1  UNL1        0.0296
      7 C         143.3573  143.7632  162.4402 C.2     1  UNL1        0.3177
      8 O         144.3857  144.8552  162.4354 O.2     1  UNL1       -0.2501
      9 C         144.5866  142.5579  160.4944 C.3     1  UNL1        0.2556
     10 O         143.5430  142.5544  161.5718 O.3     1  UNL1       -0.4444
     11 C         141.9502  145.0818  162.4367 C.3     1  UNL1        0.1002
     12 N         141.9757  144.9333  160.9443 N.am    1  UNL1       -0.3003
     13 C         140.7590  145.2739  160.1357 C.2     1  UNL1        0.2461
     14 O         139.5168  145.7630  160.8196 O.2     1  UNL1       -0.2701
     15 H         142.7910  144.6123  160.4954 H       1  UNL1        0.1498
     16 C         140.7845  145.1254  158.6433 C.ar    1  UNL1        0.0594
     17 C         140.2721  146.2325  157.7706 C.ar    1  UNL1        0.0416
     18 C         140.2976  146.0840  156.2782 C.ar    1  UNL1        0.1419
     19 C         140.8356  144.8284  155.6585 C.ar    1  UNL1        0.0738
     20 C         141.3480  143.7212  156.5312 C.ar    1  UNL1        0.1419
     21 C         141.3225  143.8697  158.0237 C.ar    1  UNL1        0.0416
     22 O         139.7852  147.1912  155.4054 O.3     1  UNL1       -0.4713
     23 C         140.3398  147.3750  154.0239 C.3     1  UNL1        0.2525
     24 O         141.8860  142.4656  155.9116 O.3     1  UNL1       -0.4713
     25 C         142.2440  141.2951  156.7786 C.3     1  UNL1        0.2525
     26 C         140.1440  141.7560  166.7398 C.3     1  UNL1        0.0992
     27 C         140.6870  141.8995  168.1306 C.ar    1  UNL1       -0.0031
     28 C         140.4790  143.1770  168.8888 C.ar    1  UNL1       -0.0027
     29 C         141.0221  143.3207  170.2797 C.ar    1  UNL1        0.0028
     30 C         141.7730  142.1868  170.9124 C.ar    1  UNL1        0.0369
     31 C         141.9810  140.9093  170.1542 C.ar    1  UNL1        0.1385
     32 C         141.4379  140.7657  168.7634 C.ar    1  UNL1        0.0340
     33 O         142.7319  139.7754  170.7870 O.3     1  UNL1       -0.4714
     34 C         142.7821  138.4382  170.1094 C.3     1  UNL1        0.2525
@<TRIPOS>BOND
     1     9    10    1
     2    10     7    1
     3     7     8    2
     4     7     1    1
     5     1    11    1
     6    11    12    1
     7    12    13   am
     8    13    14    2
     9    13    16    1
    10    16    17   ar
    11    17    18   ar
    12    18    22    1
    13    22    23    1
    14    18    19   ar
    15    19    20   ar
    16    20    24    1
    17    24    25    1
    18    20    21   ar
    19     1     2    1
    20     2     3    1
    21     3     4    1
    22     4    26    1
    23    26    27    1
    24    27    28   ar
    25    28    29   ar
    26    29    30   ar
    27    30    31   ar
    28    31    33    1
    29    33    34    1
    30    31    32   ar
    31     4     5    1
    32     5     6    1
    33     6     1    1
    34    21    16   ar
    35    32    27   ar
    36    12    15    1
@<TRIPOS>MOLECULE
*****
 34 36 0 0 0
SMALL
GASTEIGER

@<TRIPOS>ATOM
      1 C         143.1630  139.2173  160.0053 C.3     1  UNL1        0.1102
      2 C         142.3540  138.0210  160.4109 C.3     1  UNL1        0.0296
      3 C         142.1624  137.7029  161.8642 C.3     1  UNL1        0.0730
      4 N         142.7797  138.5811  162.9119 N.3     1  UNL1       -0.2689
      5 C         143.5887  139.7774  162.5064 C.3     1  UNL1        0.0730
      6 C         143.7803  140.0955  161.0531 C.3     1  UNL1        0.0296
      7 C         143.8391  140.2308  159.1303 C.2     1  UNL1        0.3177
      8 O         144.5253  139.7947  157.8698 O.2     1  UNL1       -0.2501
      9 C         144.3319  142.7158  158.5541 C.3     1  UNL1        0.2556
     10 O         143.8291  141.6803  159.5159 O.3     1  UNL1       -0.4444
     11 C         142.7804  138.6911  158.6538 C.3     1  UNL1        0.1002
     12 N         142.8832  137.2229  158.3639 N.am    1  UNL1       -0.3003
     13 C         142.5479  136.7030  156.9974 C.2     1  UNL1        0.2461
     14 O         142.1098  137.6512  155.9208 O.2     1  UNL1       -0.2701
     15 H         143.1707  136.6006  159.0705 H       1  UNL1        0.1498
     16 C         142.6507  135.2349  156.7075 C.ar    1  UNL1        0.0594
     17 C         143.6316  134.3881  157.4629 C.ar    1  UNL1        0.0416
     18 C         143.7343  132.9200  157.1730 C.ar    1  UNL1        0.1419
     19 C         142.8562  132.2986  156.1277 C.ar    1  UNL1        0.0738
     20 C         141.8752  133.1454  155.3722 C.ar    1  UNL1        0.1419
     21 C         141.7724  134.6135  155.6621 C.ar    1  UNL1        0.0416
     22 O         144.7153  132.0732  157.9285 O.3     1  UNL1       -0.4713
     23 C         144.5949  130.5784  157.8985 C.3     1  UNL1        0.2525
     24 O         140.9971  132.5241  154.3269 O.3     1  UNL1       -0.4713
     25 C         141.4543  131.2964  153.5963 C.3     1  UNL1        0.2525
     26 C         142.5881  138.2630  164.3652 C.3     1  UNL1        0.0992
     27 C         141.3039  138.6268  165.0496 C.ar    1  UNL1       -0.0031
     28 C         140.0620  137.8271  164.7881 C.ar    1  UNL1       -0.0027
     29 C         138.7777  138.1909  165.4725 C.ar    1  UNL1        0.0028
     30 C         138.7352  139.3542  166.4183 C.ar    1  UNL1        0.0369
     31 C         139.9771  140.1539  166.6799 C.ar    1  UNL1        0.1385
     32 C         141.2613  139.7902  165.9955 C.ar    1  UNL1        0.0340
     33 O         139.9346  141.3173  167.6257 O.3     1  UNL1       -0.4714
     34 C         140.4240  142.6637  167.1813 C.3     1  UNL1        0.2525
@<TRIPOS>BOND
     1     9    10    1
     2    10     7    1
     3     7     8    2
     4     7     1    1
     5     1    11    1
     6    11    12    1
     7    12    13   am
     8    13    14    2
     9    13    16    1
    10    16    17   ar
    11    17    18   ar
    12    18    22    1
    13    22    23    1
    14    18    19   ar
    15    19    20   ar
    16    20    24    1
    17    24    25    1
    18    20    21   ar
    19     1     2    1
    20     2     3    1
    21     3     4    1
    22     4    26    1
    23    26    27    1
    24    27    28   ar
    25    28    29   ar
    26    29    30   ar
    27    30    31   ar
    28    31    33    1
    29    33    34    1
    30    31    32   ar
    31     4     5    1
    32     5     6    1
    33     6     1    1
    34    21    16   ar
    35    32    27   ar
    36    12    15    1
@<TRIPOS>MOLECULE
*****
 34 36 0 0 0
SMALL
GASTEIGER

@<TRIPOS>ATOM
      1 C         139.7508  142.4749  162.5021 C.3     1  UNL1        0.1102
      2 C         140.5030  141.1800  162.4160 C.3     1  UNL1        0.0296
      3 C         140.6271  140.3027  163.6263 C.3     1  UNL1        0.0730
      4 N         139.9990  140.7204  164.9229 N.3     1  UNL1       -0.2689
      5 C         139.2468  142.0153  165.0091 C.3     1  UNL1        0.0730
      6 C         139.1227  142.8925  163.7987 C.3     1  UNL1        0.0296
      7 C         139.1435  143.7824  162.0880 C.2     1  UNL1        0.3177
      8 O         137.6740  144.0191  162.2737 O.2     1  UNL1       -0.2501
      9 C         139.8316  146.2816  161.9122 C.3     1  UNL1        0.2556
     10 O         140.0057  144.8533  161.4883 O.3     1  UNL1       -0.4444
     11 C         140.1681  142.5113  161.0618 C.3     1  UNL1        0.1002
     12 N         139.1340  142.6555  159.9848 N.am    1  UNL1       -0.3003
     13 C         139.3144  141.9513  158.6727 C.2     1  UNL1        0.2461
     14 O         140.5288  141.1029  158.4376 O.2     1  UNL1       -0.2701
     15 H         138.3369  143.2123  160.1391 H       1  UNL1        0.1498
     16 C         138.2803  142.0955  157.5957 C.ar    1  UNL1        0.0594
     17 C         137.3230  140.9741  157.3201 C.ar    1  UNL1        0.0416
     18 C         136.2889  141.1184  156.2431 C.ar    1  UNL1        0.1419
     19 C         136.2121  142.3840  155.4418 C.ar    1  UNL1        0.0738
     20 C         137.1694  143.5055  155.7174 C.ar    1  UNL1        0.1419
     21 C         138.2035  143.3613  156.7943 C.ar    1  UNL1        0.0416
     22 O         135.3316  139.9969  155.9675 O.3     1  UNL1       -0.4713
     23 C         135.0309  139.5980  154.5532 C.3     1  UNL1        0.2525
     24 O         137.0926  144.7711  154.9160 O.3     1  UNL1       -0.4713
     25 C         138.0944  145.8643  155.1427 C.3     1  UNL1        0.2525
     26 C         140.1231  139.8432  166.1333 C.3     1  UNL1        0.0992
     27 C         140.2527  140.4582  167.4952 C.ar    1  UNL1       -0.0031
     28 C         139.2543  140.1286  168.5651 C.ar    1  UNL1       -0.0027
     29 C         139.3839  140.7436  169.9271 C.ar    1  UNL1        0.0028
     30 C         140.5119  141.6882  170.2192 C.ar    1  UNL1        0.0369
     31 C         141.5103  142.0178  169.1493 C.ar    1  UNL1        0.1385
     32 C         141.3807  141.4028  167.7874 C.ar    1  UNL1        0.0340
     33 O         142.6383  142.9624  169.4415 O.3     1  UNL1       -0.4714
     34 C         143.9781  142.4268  169.8514 C.3     1  UNL1        0.2525
@<TRIPOS>BOND
     1     9    10    1
     2    10     7    1
     3     7     8    2
     4     7     1    1
     5     1    11    1
     6    11    12    1
     7    12    13   am
     8    13    14    2
     9    13    16    1
    10    16    17   ar
    11    17    18   ar
    12    18    22    1
    13    22    23    1
    14    18    19   ar
    15    19    20   ar
    16    20    24    1
    17    24    25    1
    18    20    21   ar
    19     1     2    1
    20     2     3    1
    21     3     4    1
    22     4    26    1
    23    26    27    1
    24    27    28   ar
    25    28    29   ar
    26    29    30   ar
    27    30    31   ar
    28    31    33    1
    29    33    34    1
    30    31    32   ar
    31     4     5    1
    32     5     6    1
    33     6     1    1
    34    21    16   ar
    35    32    27   ar
    36    12    15    1
@<TRIPOS>MOLECULE
*****
 34 36 0 0 0
SMALL
GASTEIGER

@<TRIPOS>ATOM
      1 C         141.9020  139.1552  158.5347 C.3     1  UNL1        0.1102
      2 C         140.6024  138.6757  157.9594 C.3     1  UNL1        0.0296
      3 C         139.3086  139.0326  158.6293 C.3     1  UNL1        0.0730
      4 N         139.3144  139.8691  159.8744 N.3     1  UNL1       -0.2689
      5 C         140.6141  140.3485  160.4497 C.3     1  UNL1        0.0730
      6 C         141.9079  139.9916  159.7799 C.3     1  UNL1        0.0296
      7 C         143.3776  139.3701  158.6972 C.2     1  UNL1        0.3177
      8 O         144.0192  139.1843  160.0403 O.2     1  UNL1       -0.2501
      9 C         144.8276  141.1373  157.4625 C.3     1  UNL1        0.2556
     10 O         144.2117  139.7707  157.5166 O.3     1  UNL1       -0.4444
     11 C         142.4085  138.3934  157.3460 C.3     1  UNL1        0.1002
     12 N         142.5114  136.8980  157.4018 N.am    1  UNL1       -0.3003
     13 C         142.4316  136.0931  156.1385 C.2     1  UNL1        0.2461
     14 O         142.2488  136.7836  154.8195 O.2     1  UNL1       -0.2701
     15 H         142.6314  136.4447  158.2675 H       1  UNL1        0.1498
     16 C         142.5345  134.5976  156.1942 C.ar    1  UNL1        0.0594
     17 C         143.6026  133.9498  157.0245 C.ar    1  UNL1        0.0416
     18 C         143.7055  132.4544  157.0803 C.ar    1  UNL1        0.1419
     19 C         142.7403  131.6068  156.3057 C.ar    1  UNL1        0.0738
     20 C         141.6721  132.2546  155.4754 C.ar    1  UNL1        0.1419
     21 C         141.5692  133.7501  155.4196 C.ar    1  UNL1        0.0416
     22 O         144.7736  131.8065  157.9106 O.3     1  UNL1       -0.4713
     23 C         144.7230  130.3318  158.1801 C.3     1  UNL1        0.2525
     24 O         140.7069  131.4070  154.7008 O.3     1  UNL1       -0.4713
     25 C         140.6473  131.5138  153.2058 C.3     1  UNL1        0.2525
     26 C         138.0206  140.2260  160.5443 C.3     1  UNL1        0.0992
     27 C         138.0156  141.1659  161.7132 C.ar    1  UNL1       -0.0031
     28 C         137.9453  140.6248  163.1105 C.ar    1  UNL1       -0.0027
     29 C         137.9402  141.5647  164.2795 C.ar    1  UNL1        0.0028
     30 C         138.0055  143.0458  164.0512 C.ar    1  UNL1        0.0369
     31 C         138.0758  143.5869  162.6540 C.ar    1  UNL1        0.1385
     32 C         138.0808  142.6470  161.4850 C.ar    1  UNL1        0.0340
     33 O         138.1410  145.0680  162.4258 O.3     1  UNL1       -0.4714
     34 C         139.4678  145.7384  162.2254 C.3     1  UNL1        0.2525
@<TRIPOS>BOND
     1     9    10    1
     2    10     7    1
     3     7     8    2
     4     7     1    1
     5     1    11    1
     6    11    12    1
     7    12    13   am
     8    13    14    2
     9    13    16    1
    10    16    17   ar
    11    17    18   ar
    12    18    22    1
    13    22    23    1
    14    18    19   ar
    15    19    20   ar
    16    20    24    1
    17    24    25    1
    18    20    21   ar
    19     1     2    1
    20     2     3    1
    21     3     4    1
    22     4    26    1
    23    26    27    1
    24    27    28   ar
    25    28    29   ar
    26    29    30   ar
    27    30    31   ar
    28    31    33    1
    29    33    34    1
    30    31    32   ar
    31     4     5    1
    32     5     6    1
    33     6     1    1
    34    21    16   ar
    35    32    27   ar
    36    12    15    1
