@<TRIPOS>MOLECULE
*****
 45 49 0 0 0
SMALL
GASTEIGER

@<TRIPOS>ATOM
      1 C         140.0922  138.7238  159.5706 C.ar    1  UNL1        0.0846
      2 C         141.2135  138.4085  160.5157 C.ar    1  UNL1        0.0174
      3 C         141.1776  138.9288  161.9222 C.ar    1  UNL1       -0.0031
      4 C         140.0203  139.7644  162.3834 C.ar    1  UNL1       -0.0218
      5 C         138.8991  140.0796  161.4382 C.ar    1  UNL1        0.0091
      6 C         138.9350  139.5593  160.0318 C.ar    1  UNL1        0.1477
      7 C         137.6614  140.8882  161.6919 C.3     1  UNL1        0.0292
      8 C         137.2393  141.5812  162.9535 C.3     1  UNL1        0.0062
      9 C         137.9506  141.6368  164.2728 C.3     1  UNL1        0.0166
     10 C         139.2597  141.0132  164.6566 C.3     1  UNL1        0.0619
     11 C         140.1809  140.1799  163.8157 C.3     1  UNL1        0.0421
     12 N         139.7069  141.2548  166.0679 N.3     1  UNL1       -0.2713
     13 C         139.6502  140.1431  167.0733 C.3     1  UNL1        0.0896
     14 C         140.0974  140.3847  168.4847 C.3     1  UNL1        0.0897
     15 N         140.6012  141.7381  168.8905 N.3     1  UNL1       -0.2682
     16 C         140.6578  142.8498  167.8850 C.3     1  UNL1        0.0897
     17 C         140.2106  142.6081  166.4737 C.3     1  UNL1        0.0896
     18 C         141.0483  141.9797  170.3017 C.3     1  UNL1        0.1043
     19 C         141.0787  140.8459  171.2834 C.3     1  UNL1        0.1544
     20 O         142.2899  140.6288  172.1412 O.3     1  UNL1       -0.3805
     21 H         143.0419  140.3793  171.5816 H       1  UNL1        0.2105
     22 N         140.1283  138.2034  158.1642 N.pl3   1  UNL1       -0.2801
     23 H         139.3353  137.7625  157.7820 H       1  UNL1        0.1552
     24 C         143.2522  137.3011  155.8888 C.ar    1  UNL1        0.1472
     25 N         142.0080  137.1496  156.7128 N.ar    1  UNL1       -0.1976
     26 C         141.3725  138.3549  157.3401 C.ar    1  UNL1        0.2220
     27 N         141.9812  139.7117  157.1433 N.ar    1  UNL1       -0.2110
     28 C         143.2253  139.8632  156.3193 C.ar    1  UNL1        0.1160
     29 C         143.8609  138.6579  155.6920 C.ar    1  UNL1        0.1085
     30 CL        145.1051  138.8093  154.8680 Cl      1  UNL1       -0.0777
     31 N         143.8876  136.0958  155.2616 N.pl3   1  UNL1       -0.2970
     32 H         144.8675  136.0396  155.1850 H       1  UNL1        0.1536
     33 C         142.9713  133.6761  155.4972 C.ar    1  UNL1        0.0668
     34 C         142.1136  132.5563  154.9866 C.ar    1  UNL1        0.0058
     35 C         141.3147  132.7365  153.7299 C.ar    1  UNL1        0.0002
     36 C         141.3733  134.0364  152.9837 C.ar    1  UNL1        0.0013
     37 C         142.2310  135.1562  153.4943 C.ar    1  UNL1        0.0148
     38 C         143.0300  134.9760  154.7510 C.ar    1  UNL1        0.0537
     39 C         145.6522  132.2795  158.0686 C.3     1  UNL1        0.1109
     40 N         144.8532  132.4598  156.8119 N.am    1  UNL1       -0.2991
     41 C         143.7702  133.4959  156.7538 C.2     1  UNL1        0.2471
     42 O         143.4860  134.3518  157.9524 O.2     1  UNL1       -0.2701
     43 H         145.0397  131.8980  156.0252 H       1  UNL1        0.1498
     44 O         137.8137  139.8745  159.0866 O.3     1  UNL1       -0.4705
     45 C         137.9782  140.9582  158.0627 C.3     1  UNL1        0.2525
@<TRIPOS>BOND
     1    39    40    1
     2    40    41   am
     3    41    42    2
     4    41    33    1
     5    33    34   ar
     6    34    35   ar
     7    35    36   ar
     8    36    37   ar
     9    37    38   ar
    10    38    31    1
    11    31    24    1
    12    24    25   ar
    13    25    26   ar
    14    26    22    1
    15    22     1    1
    16     1     2   ar
    17     2     3   ar
    18     3     4   ar
    19     4     5   ar
    20     5     6   ar
    21     6    44    1
    22    44    45    1
    23     5     7    1
    24     7     8    1
    25     8     9    1
    26     9    10    1
    27    10    12    1
    28    12    13    1
    29    13    14    1
    30    14    15    1
    31    15    18    1
    32    18    19    1
    33    19    20    1
    34    15    16    1
    35    16    17    1
    36    10    11    1
    37    26    27   ar
    38    27    28   ar
    39    28    29   ar
    40    29    30    1
    41    38    33   ar
    42    29    24   ar
    43     6     1   ar
    44    17    12    1
    45    11     4    1
    46    40    43    1
    47    31    32    1
    48    22    23    1
    49    20    21    1
@<TRIPOS>MOLECULE
*****
 45 49 0 0 0
SMALL
GASTEIGER

@<TRIPOS>ATOM
      1 C         142.9629  143.2930  164.3641 C.ar    1  UNL1        0.0846
      2 C         142.1331  144.5099  164.0799 C.ar    1  UNL1        0.0174
      3 C         141.8228  144.8920  162.6629 C.ar    1  UNL1       -0.0031
      4 C         142.3424  144.0570  161.5301 C.ar    1  UNL1       -0.0218
      5 C         143.1721  142.8403  161.8144 C.ar    1  UNL1        0.0091
      6 C         143.4823  142.4582  163.2313 C.ar    1  UNL1        0.1477
      7 C         143.7839  141.8771  160.8406 C.3     1  UNL1        0.0292
      8 C         143.7170  141.8930  159.3421 C.3     1  UNL1        0.0062
      9 C         143.0219  142.8759  158.4475 C.3     1  UNL1        0.0166
     10 C         142.2219  144.0857  158.8301 C.3     1  UNL1        0.0619
     11 C         141.9195  144.6114  160.2020 C.3     1  UNL1        0.0421
     12 N         141.6485  144.8741  157.6901 N.3     1  UNL1       -0.2713
     13 C         142.2468  144.7546  156.3197 C.3     1  UNL1        0.0896
     14 C         141.6733  145.5430  155.1796 C.3     1  UNL1        0.0897
     15 N         140.5017  146.4509  155.4099 N.3     1  UNL1       -0.2682
     16 C         139.9035  146.5704  156.7803 C.3     1  UNL1        0.0897
     17 C         140.4769  145.7819  157.9204 C.3     1  UNL1        0.0896
     18 C         139.9283  147.2392  154.2699 C.3     1  UNL1        0.1043
     19 C         139.4591  148.6465  154.4923 C.3     1  UNL1        0.1544
     20 O         140.4494  149.7245  154.8193 O.3     1  UNL1       -0.3805
     21 H         140.8462  149.5468  155.6864 H       1  UNL1        0.2105
     22 N         143.2731  142.9111  165.7811 N.pl3   1  UNL1       -0.2801
     23 H         144.1576  143.1133  166.1630 H       1  UNL1        0.1552
     24 C         140.0530  140.8221  166.7901 C.ar    1  UNL1        0.1472
     25 N         141.0906  141.5121  165.9551 N.ar    1  UNL1       -0.1976
     26 C         142.2355  142.2211  166.6161 C.ar    1  UNL1        0.2220
     27 N         142.3426  142.2399  168.1122 N.ar    1  UNL1       -0.2110
     28 C         141.3050  141.5499  168.9472 C.ar    1  UNL1        0.1160
     29 C         140.1602  140.8410  168.2862 C.ar    1  UNL1        0.1085
     30 CL        139.1226  140.1510  169.1212 Cl      1  UNL1       -0.0777
     31 N         138.9083  140.1132  166.1290 N.pl3   1  UNL1       -0.2970
     32 H         138.0139  140.1325  166.5401 H       1  UNL1        0.1536
     33 C         138.7625  140.0192  163.5367 C.ar    1  UNL1        0.0668
     34 C         138.9805  139.2810  162.2492 C.ar    1  UNL1        0.0058
     35 C         139.5623  137.8985  162.2667 C.ar    1  UNL1        0.0002
     36 C         139.9261  137.2542  163.5715 C.ar    1  UNL1        0.0013
     37 C         139.7081  137.9925  164.8589 C.ar    1  UNL1        0.0148
     38 C         139.1263  139.3750  164.8416 C.ar    1  UNL1        0.0537
     39 C         138.4426  143.9580  163.9021 C.3     1  UNL1        0.1109
     40 N         139.0244  142.5755  163.9196 N.am    1  UNL1       -0.2991
     41 C         138.1807  141.4016  163.5192 C.2     1  UNL1        0.2471
     42 O         136.7553  141.6103  163.1015 O.2     1  UNL1       -0.2701
     43 H         139.9599  142.4386  164.1937 H       1  UNL1        0.1498
     44 O         144.3121  141.2413  163.5155 O.3     1  UNL1       -0.4705
     45 C         145.7791  141.3823  163.7943 C.3     1  UNL1        0.2525
@<TRIPOS>BOND
     1    39    40    1
     2    40    41   am
     3    41    42    2
     4    41    33    1
     5    33    34   ar
     6    34    35   ar
     7    35    36   ar
     8    36    37   ar
     9    37    38   ar
    10    38    31    1
    11    31    24    1
    12    24    25   ar
    13    25    26   ar
    14    26    22    1
    15    22     1    1
    16     1     2   ar
    17     2     3   ar
    18     3     4   ar
    19     4     5   ar
    20     5     6   ar
    21     6    44    1
    22    44    45    1
    23     5     7    1
    24     7     8    1
    25     8     9    1
    26     9    10    1
    27    10    12    1
    28    12    13    1
    29    13    14    1
    30    14    15    1
    31    15    18    1
    32    18    19    1
    33    19    20    1
    34    15    16    1
    35    16    17    1
    36    10    11    1
    37    26    27   ar
    38    27    28   ar
    39    28    29   ar
    40    29    30    1
    41    38    33   ar
    42    29    24   ar
    43     6     1   ar
    44    17    12    1
    45    11     4    1
    46    40    43    1
    47    31    32    1
    48    22    23    1
    49    20    21    1
@<TRIPOS>MOLECULE
*****
 45 49 0 0 0
SMALL
GASTEIGER

@<TRIPOS>ATOM
      1 C         144.2574  141.4906  163.7523 C.ar    1  UNL1        0.0846
      2 C         144.0334  140.0098  163.6681 C.ar    1  UNL1        0.0174
      3 C         143.8330  139.3564  162.3328 C.ar    1  UNL1       -0.0031
      4 C         143.8565  140.1838  161.0818 C.ar    1  UNL1       -0.0218
      5 C         144.0805  141.6645  161.1662 C.ar    1  UNL1        0.0091
      6 C         144.2810  142.3180  162.5013 C.ar    1  UNL1        0.1477
      7 C         144.1403  142.6664  160.0513 C.3     1  UNL1        0.0292
      8 C         143.9909  142.4347  158.5768 C.3     1  UNL1        0.0062
      9 C         143.7448  141.1442  157.8531 C.3     1  UNL1        0.0166
     10 C         143.5873  139.7665  158.4250 C.3     1  UNL1        0.0619
     11 C         143.6370  139.3390  159.8619 C.3     1  UNL1        0.0421
     12 N         143.3485  138.6714  157.4281 N.3     1  UNL1       -0.2713
     13 C         143.7816  138.8471  156.0028 C.3     1  UNL1        0.0896
     14 C         143.5428  137.7519  155.0059 C.3     1  UNL1        0.0897
     15 N         142.8708  136.4811  155.4344 N.3     1  UNL1       -0.2682
     16 C         142.4377  136.3054  156.8597 C.3     1  UNL1        0.0897
     17 C         142.6765  137.4006  157.8566 C.3     1  UNL1        0.0896
     18 C         142.6320  135.3860  154.4376 C.3     1  UNL1        0.1043
     19 C         141.4689  134.4547  154.6107 C.3     1  UNL1        0.1544
     20 O         141.6242  133.2040  155.4240 O.3     1  UNL1       -0.3805
     21 H         142.2466  132.6059  154.9816 H       1  UNL1        0.2105
     22 N         144.4579  142.1440  165.0876 N.pl3   1  UNL1       -0.2801
     23 H         145.3209  142.5649  165.3051 H       1  UNL1        0.1552
     24 C         140.8335  141.8174  166.6712 C.ar    1  UNL1        0.1472
     25 N         141.9480  141.8054  165.6672 N.ar    1  UNL1       -0.1976
     26 C         143.3434  142.1559  166.0915 C.ar    1  UNL1        0.2220
     27 N         143.6243  142.5183  167.5198 N.ar    1  UNL1       -0.2110
     28 C         142.5100  142.5302  168.5237 C.ar    1  UNL1        0.1160
     29 C         141.1145  142.1798  168.0994 C.ar    1  UNL1        0.1085
     30 CL        140.0000  142.1917  169.1033 Cl      1  UNL1       -0.0777
     31 N         139.4381  141.4669  166.2468 N.pl3   1  UNL1       -0.2970
     32 H         138.8898  140.8685  166.8040 H       1  UNL1        0.1536
     33 C         138.6790  141.1361  163.7842 C.ar    1  UNL1        0.0668
     34 C         138.1190  141.6975  162.5109 C.ar    1  UNL1        0.0058
     35 C         137.7583  143.1511  162.4268 C.ar    1  UNL1        0.0002
     36 C         137.9576  144.0433  163.6160 C.ar    1  UNL1        0.0013
     37 C         138.5175  143.4819  164.8894 C.ar    1  UNL1        0.0148
     38 C         138.8782  142.0283  164.9735 C.ar    1  UNL1        0.0537
     39 C         140.3405  137.6303  162.9486 C.3     1  UNL1        0.1109
     40 N         139.9798  139.0839  162.8645 N.am    1  UNL1       -0.2991
     41 C         139.0396  139.6826  163.8683 C.2     1  UNL1        0.2471
     42 O         138.4601  138.8278  164.9561 O.2     1  UNL1       -0.2701
     43 H         140.3602  139.6449  162.1505 H       1  UNL1        0.1498
     44 O         144.5050  143.7988  162.5856 O.3     1  UNL1       -0.4705
     45 C         143.3816  144.7052  162.9934 C.3     1  UNL1        0.2525
@<TRIPOS>BOND
     1    39    40    1
     2    40    41   am
     3    41    42    2
     4    41    33    1
     5    33    34   ar
     6    34    35   ar
     7    35    36   ar
     8    36    37   ar
     9    37    38   ar
    10    38    31    1
    11    31    24    1
    12    24    25   ar
    13    25    26   ar
    14    26    22    1
    15    22     1    1
    16     1     2   ar
    17     2     3   ar
    18     3     4   ar
    19     4     5   ar
    20     5     6   ar
    21     6    44    1
    22    44    45    1
    23     5     7    1
    24     7     8    1
    25     8     9    1
    26     9    10    1
    27    10    12    1
    28    12    13    1
    29    13    14    1
    30    14    15    1
    31    15    18    1
    32    18    19    1
    33    19    20    1
    34    15    16    1
    35    16    17    1
    36    10    11    1
    37    26    27   ar
    38    27    28   ar
    39    28    29   ar
    40    29    30    1
    41    38    33   ar
    42    29    24   ar
    43     6     1   ar
    44    17    12    1
    45    11     4    1
    46    40    43    1
    47    31    32    1
    48    22    23    1
    49    20    21    1
@<TRIPOS>MOLECULE
*****
 45 49 0 0 0
SMALL
GASTEIGER

@<TRIPOS>ATOM
      1 C         141.1549  142.3442  158.6762 C.ar    1  UNL1        0.0846
      2 C         141.8659  143.6240  159.0029 C.ar    1  UNL1        0.0174
      3 C         141.4477  144.9041  158.3420 C.ar    1  UNL1       -0.0031
      4 C         140.3186  144.9043  157.3545 C.ar    1  UNL1       -0.0218
      5 C         139.6077  143.6246  157.0279 C.ar    1  UNL1        0.0091
      6 C         140.0258  142.3445  157.6887 C.ar    1  UNL1        0.1477
      7 C         138.4659  143.4045  156.0802 C.3     1  UNL1        0.0292
      8 C         137.7532  144.4100  155.2251 C.3     1  UNL1        0.0062
      9 C         138.0062  145.8837  155.1066 C.3     1  UNL1        0.0166
     10 C         139.0344  146.7160  155.8137 C.3     1  UNL1        0.0619
     11 C         140.0635  146.2802  156.8142 C.3     1  UNL1        0.0421
     12 N         139.0332  148.1774  155.4758 N.3     1  UNL1       -0.2713
     13 C         139.5810  148.6432  154.1593 C.3     1  UNL1        0.0896
     14 C         139.5799  150.1048  153.8214 C.3     1  UNL1        0.0897
     15 N         139.0310  151.1004  154.7999 N.3     1  UNL1       -0.2682
     16 C         138.4832  150.6346  156.1164 C.3     1  UNL1        0.0897
     17 C         138.4844  149.1731  156.4543 C.3     1  UNL1        0.0896
     18 C         139.0299  152.5618  154.4620 C.3     1  UNL1        0.1043
     19 C         138.5659  153.0188  153.1107 C.3     1  UNL1        0.1544
     20 O         137.1461  153.4613  152.9154 O.3     1  UNL1       -0.3805
     21 H         136.5513  152.7059  153.0443 H       1  UNL1        0.2105
     22 N         141.5731  141.0643  159.3370 N.pl3   1  UNL1       -0.2801
     23 H         141.4254  140.2040  158.8816 H       1  UNL1        0.1552
     24 C         142.0080  141.1945  163.2797 C.ar    1  UNL1        0.1472
     25 N         141.3649  141.1638  161.9249 N.ar    1  UNL1       -0.1976
     26 C         142.2163  141.0950  160.6918 C.ar    1  UNL1        0.2220
     27 N         143.7109  141.0570  160.8136 N.ar    1  UNL1       -0.2110
     28 C         144.3541  141.0877  162.1683 C.ar    1  UNL1        0.1160
     29 C         143.5026  141.1565  163.4014 C.ar    1  UNL1        0.1085
     30 CL        144.1458  141.1872  164.7561 Cl      1  UNL1       -0.0777
     31 N         141.1566  141.2633  164.5126 N.pl3   1  UNL1       -0.2970
     32 H         141.3321  140.6551  165.2666 H       1  UNL1        0.1536
     33 C         138.6475  141.8601  164.1986 C.ar    1  UNL1        0.0668
     34 C         137.5286  142.8556  164.2827 C.ar    1  UNL1        0.0058
     35 C         137.7999  144.2498  164.7650 C.ar    1  UNL1        0.0002
     36 C         139.1899  144.6486  165.1632 C.ar    1  UNL1        0.0013
     37 C         140.3089  143.6531  165.0791 C.ar    1  UNL1        0.0148
     38 C         140.0377  142.2588  164.5968 C.ar    1  UNL1        0.0537
     39 C         137.8361  138.8201  161.7798 C.3     1  UNL1        0.1109
     40 N         138.1074  140.2143  162.2622 N.am    1  UNL1       -0.2991
     41 C         138.3763  140.4659  163.7163 C.2     1  UNL1        0.2471
     42 O         138.3740  139.3233  164.6881 O.2     1  UNL1       -0.2701
     43 H         138.1089  140.9642  161.6244 H       1  UNL1        0.1498
     44 O         139.3148  141.0648  157.3620 O.3     1  UNL1       -0.4705
     45 C         138.2803  140.5205  158.3020 C.3     1  UNL1        0.2525
@<TRIPOS>BOND
     1    39    40    1
     2    40    41   am
     3    41    42    2
     4    41    33    1
     5    33    34   ar
     6    34    35   ar
     7    35    36   ar
     8    36    37   ar
     9    37    38   ar
    10    38    31    1
    11    31    24    1
    12    24    25   ar
    13    25    26   ar
    14    26    22    1
    15    22     1    1
    16     1     2   ar
    17     2     3   ar
    18     3     4   ar
    19     4     5   ar
    20     5     6   ar
    21     6    44    1
    22    44    45    1
    23     5     7    1
    24     7     8    1
    25     8     9    1
    26     9    10    1
    27    10    12    1
    28    12    13    1
    29    13    14    1
    30    14    15    1
    31    15    18    1
    32    18    19    1
    33    19    20    1
    34    15    16    1
    35    16    17    1
    36    10    11    1
    37    26    27   ar
    38    27    28   ar
    39    28    29   ar
    40    29    30    1
    41    38    33   ar
    42    29    24   ar
    43     6     1   ar
    44    17    12    1
    45    11     4    1
    46    40    43    1
    47    31    32    1
    48    22    23    1
    49    20    21    1
@<TRIPOS>MOLECULE
*****
 45 49 0 0 0
SMALL
GASTEIGER

@<TRIPOS>ATOM
      1 C         139.9669  143.2529  164.5194 C.ar    1  UNL1        0.0846
      2 C         138.5137  143.0624  164.2004 C.ar    1  UNL1        0.0174
      3 C         138.0805  142.8358  162.7823 C.ar    1  UNL1       -0.0031
      4 C         139.1007  142.7996  161.6831 C.ar    1  UNL1       -0.0218
      5 C         140.5538  142.9901  162.0021 C.ar    1  UNL1        0.0091
      6 C         140.9870  143.2167  163.4202 C.ar    1  UNL1        0.1477
      7 C         141.7249  142.9902  161.0647 C.3     1  UNL1        0.0292
      8 C         141.7319  142.7999  159.5768 C.3     1  UNL1        0.0062
      9 C         140.5696  142.5625  158.6590 C.3     1  UNL1        0.0166
     10 C         139.1132  142.4567  159.0021 C.3     1  UNL1        0.0619
     11 C         138.4594  142.5622  160.3480 C.3     1  UNL1        0.0421
     12 N         138.1883  142.2132  157.8466 N.3     1  UNL1       -0.2713
     13 C         137.4501  140.9119  157.7381 C.3     1  UNL1        0.0896
     14 C         136.5251  140.6684  156.5825 C.3     1  UNL1        0.0897
     15 N         136.3384  141.7262  155.5355 N.3     1  UNL1       -0.2682
     16 C         137.0766  143.0275  155.6440 C.3     1  UNL1        0.0897
     17 C         138.0016  143.2710  156.7996 C.3     1  UNL1        0.0896
     18 C         135.4135  141.4827  154.3800 C.3     1  UNL1        0.1043
     19 C         133.9550  141.2331  154.6264 C.3     1  UNL1        0.1544
     20 O         133.5050  139.9228  155.2012 O.3     1  UNL1       -0.3805
     21 H         133.6864  139.2119  154.5666 H       1  UNL1        0.2105
     22 N         140.4000  143.4795  165.9375 N.pl3   1  UNL1       -0.2801
     23 H         140.3272  144.3763  166.3371 H       1  UNL1        0.1552
     24 C         142.0813  140.0067  166.8668 C.ar    1  UNL1        0.1472
     25 N         141.5372  141.1465  166.0576 N.ar    1  UNL1       -0.1976
     26 C         140.9442  142.3397  166.7467 C.ar    1  UNL1        0.2220
     27 N         140.8954  142.3930  168.2450 N.ar    1  UNL1       -0.2110
     28 C         141.4395  141.2533  169.0541 C.ar    1  UNL1        0.1160
     29 C         142.0325  140.0601  168.3651 C.ar    1  UNL1        0.1085
     30 CL        142.5766  138.9203  169.1743 Cl      1  UNL1       -0.0777
     31 N         142.6743  138.8136  166.1777 N.pl3   1  UNL1       -0.2970
     32 H         143.3592  138.2723  166.6328 H       1  UNL1        0.1536
     33 C         143.0147  138.8970  163.6033 C.ar    1  UNL1        0.0668
     34 C         142.5642  138.5288  162.2208 C.ar    1  UNL1        0.0058
     35 C         141.3226  137.7089  162.0300 C.ar    1  UNL1        0.0002
     36 C         140.5316  137.2573  163.2218 C.ar    1  UNL1        0.0013
     37 C         140.9821  137.6255  164.6043 C.ar    1  UNL1        0.0148
     38 C         142.2237  138.4454  164.7951 C.ar    1  UNL1        0.0537
     39 C         145.6418  141.8543  163.2825 C.3     1  UNL1        0.1109
     40 N         144.4002  141.0345  163.0918 N.am    1  UNL1       -0.2991
     41 C         144.2562  139.7169  163.7940 C.2     1  UNL1        0.2471
     42 O         145.3539  139.2191  164.6870 O.2     1  UNL1       -0.2701
     43 H         143.6799  141.3612  162.5057 H       1  UNL1        0.1498
     44 O         142.4403  143.4072  163.7391 O.3     1  UNL1       -0.4705
     45 C         142.9964  144.7901  163.9063 C.3     1  UNL1        0.2525
@<TRIPOS>BOND
     1    39    40    1
     2    40    41   am
     3    41    42    2
     4    41    33    1
     5    33    34   ar
     6    34    35   ar
     7    35    36   ar
     8    36    37   ar
     9    37    38   ar
    10    38    31    1
    11    31    24    1
    12    24    25   ar
    13    25    26   ar
    14    26    22    1
    15    22     1    1
    16     1     2   ar
    17     2     3   ar
    18     3     4   ar
    19     4     5   ar
    20     5     6   ar
    21     6    44    1
    22    44    45    1
    23     5     7    1
    24     7     8    1
    25     8     9    1
    26     9    10    1
    27    10    12    1
    28    12    13    1
    29    13    14    1
    30    14    15    1
    31    15    18    1
    32    18    19    1
    33    19    20    1
    34    15    16    1
    35    16    17    1
    36    10    11    1
    37    26    27   ar
    38    27    28   ar
    39    28    29   ar
    40    29    30    1
    41    38    33   ar
    42    29    24   ar
    43     6     1   ar
    44    17    12    1
    45    11     4    1
    46    40    43    1
    47    31    32    1
    48    22    23    1
    49    20    21    1
@<TRIPOS>MOLECULE
*****
 45 49 0 0 0
SMALL
GASTEIGER

@<TRIPOS>ATOM
      1 C         143.5300  140.9541  161.3646 C.ar    1  UNL1        0.0846
      2 C         143.2896  139.5728  161.8977 C.ar    1  UNL1        0.0174
      3 C         143.0772  138.4295  160.9501 C.ar    1  UNL1       -0.0031
      4 C         143.1052  138.6677  159.4693 C.ar    1  UNL1       -0.0218
      5 C         143.3456  140.0490  158.9363 C.ar    1  UNL1        0.0091
      6 C         143.5580  141.1922  159.8839 C.ar    1  UNL1        0.1477
      7 C         143.4122  140.5017  157.5078 C.3     1  UNL1        0.0292
      8 C         143.2549  139.6848  156.2595 C.3     1  UNL1        0.0062
      9 C         142.9922  138.2137  156.1315 C.3     1  UNL1        0.0166
     10 C         142.8217  137.1958  157.2201 C.3     1  UNL1        0.0619
     11 C         142.8720  137.3979  158.7056 C.3     1  UNL1        0.0421
     12 N         142.5674  135.7901  156.7628 N.3     1  UNL1       -0.2713
     13 C         141.6041  135.5284  155.6431 C.3     1  UNL1        0.0896
     14 C         141.3498  134.1226  155.1857 C.3     1  UNL1        0.0897
     15 N         142.0587  132.9785  155.8480 N.3     1  UNL1       -0.2682
     16 C         143.0220  133.2403  156.9677 C.3     1  UNL1        0.0897
     17 C         143.2763  134.6461  157.4251 C.3     1  UNL1        0.0896
     18 C         141.8044  131.5729  155.3907 C.3     1  UNL1        0.1043
     19 C         140.5967  131.2623  154.5569 C.3     1  UNL1        0.1544
     20 O         139.6701  130.1546  154.9623 O.3     1  UNL1       -0.3805
     21 H         140.1342  129.3052  154.8985 H       1  UNL1        0.2105
     22 N         143.7424  142.0972  162.3123 N.pl3   1  UNL1       -0.2801
     23 H         144.6560  142.3874  162.5366 H       1  UNL1        0.1552
     24 C         140.0821  142.7712  163.6901 C.ar    1  UNL1        0.1472
     25 N         141.2617  142.0702  163.0843 N.ar    1  UNL1       -0.1976
     26 C         142.5627  142.7982  162.9181 C.ar    1  UNL1        0.2220
     27 N         142.6839  144.2272  163.3579 N.ar    1  UNL1       -0.2110
     28 C         141.5044  144.9282  163.9637 C.ar    1  UNL1        0.1160
     29 C         140.2034  144.2002  164.1298 C.ar    1  UNL1        0.1085
     30 CL        139.0237  144.9011  164.7357 Cl      1  UNL1       -0.0777
     31 N         138.7812  142.0431  163.8562 N.pl3   1  UNL1       -0.2970
     32 H         137.9304  142.5143  163.7036 H       1  UNL1        0.1536
     33 C         138.7108  139.5294  163.2033 C.ar    1  UNL1        0.0668
     34 C         138.7063  138.0833  163.6020 C.ar    1  UNL1        0.0058
     35 C         138.7676  137.7050  165.0522 C.ar    1  UNL1        0.0002
     36 C         138.8335  138.7726  166.1038 C.ar    1  UNL1        0.0013
     37 C         138.8380  140.2186  165.7051 C.ar    1  UNL1        0.0148
     38 C         138.7767  140.5971  164.2549 C.ar    1  UNL1        0.0537
     39 C         139.8427  140.6632  159.5725 C.3     1  UNL1        0.1109
     40 N         139.9040  140.2848  161.0227 N.am    1  UNL1       -0.2991
     41 C         138.6494  139.9077  161.7532 C.2     1  UNL1        0.2471
     42 O         137.3334  139.9090  161.0335 O.2     1  UNL1       -0.2701
     43 H         140.7678  140.2840  161.4951 H       1  UNL1        0.1498
     44 O         143.7984  142.5735  159.3508 O.3     1  UNL1       -0.4705
     45 C         142.6591  143.5426  159.2378 C.3     1  UNL1        0.2525
@<TRIPOS>BOND
     1    39    40    1
     2    40    41   am
     3    41    42    2
     4    41    33    1
     5    33    34   ar
     6    34    35   ar
     7    35    36   ar
     8    36    37   ar
     9    37    38   ar
    10    38    31    1
    11    31    24    1
    12    24    25   ar
    13    25    26   ar
    14    26    22    1
    15    22     1    1
    16     1     2   ar
    17     2     3   ar
    18     3     4   ar
    19     4     5   ar
    20     5     6   ar
    21     6    44    1
    22    44    45    1
    23     5     7    1
    24     7     8    1
    25     8     9    1
    26     9    10    1
    27    10    12    1
    28    12    13    1
    29    13    14    1
    30    14    15    1
    31    15    18    1
    32    18    19    1
    33    19    20    1
    34    15    16    1
    35    16    17    1
    36    10    11    1
    37    26    27   ar
    38    27    28   ar
    39    28    29   ar
    40    29    30    1
    41    38    33   ar
    42    29    24   ar
    43     6     1   ar
    44    17    12    1
    45    11     4    1
    46    40    43    1
    47    31    32    1
    48    22    23    1
    49    20    21    1
@<TRIPOS>MOLECULE
*****
 45 49 0 0 0
SMALL
GASTEIGER

@<TRIPOS>ATOM
      1 C         139.3737  140.1351  161.6926 C.ar    1  UNL1        0.0846
      2 C         138.2063  140.8420  161.0700 C.ar    1  UNL1        0.0174
      3 C         138.4383  141.9402  160.0749 C.ar    1  UNL1       -0.0031
      4 C         139.8377  142.3315  159.7025 C.ar    1  UNL1       -0.0218
      5 C         141.0050  141.6247  160.3250 C.ar    1  UNL1        0.0091
      6 C         140.7730  140.5265  161.3201 C.ar    1  UNL1        0.1477
      7 C         142.4692  141.8563  160.0960 C.3     1  UNL1        0.0292
      8 C         143.1277  142.8520  159.1876 C.3     1  UNL1        0.0062
      9 C         142.4846  143.8620  158.2842 C.3     1  UNL1        0.0166
     10 C         141.0242  144.1258  158.0658 C.3     1  UNL1        0.0619
     11 C         139.8462  143.4446  158.6970 C.3     1  UNL1        0.0421
     12 N         140.6988  145.2146  157.0868 N.3     1  UNL1       -0.2713
     13 C         141.3817  145.2515  155.7517 C.3     1  UNL1        0.0896
     14 C         141.0562  146.3404  154.7727 C.3     1  UNL1        0.0897
     15 N         140.0480  147.3924  155.1287 N.3     1  UNL1       -0.2682
     16 C         139.3651  147.3555  156.4638 C.3     1  UNL1        0.0897
     17 C         139.6905  146.2665  157.4428 C.3     1  UNL1        0.0896
     18 C         139.7225  148.4812  154.1497 C.3     1  UNL1        0.1043
     19 C         139.3882  149.8579  154.6428 C.3     1  UNL1        0.1544
     20 O         140.4840  150.7859  155.0762 O.3     1  UNL1       -0.3805
     21 H         140.9147  150.4297  155.8690 H       1  UNL1        0.2105
     22 N         139.1416  139.0369  162.6876 N.pl3   1  UNL1       -0.2801
     23 H         138.9762  138.1176  162.3765 H       1  UNL1        0.1552
     24 C         139.8887  140.8650  166.1300 C.ar    1  UNL1        0.1472
     25 N         139.8687  140.5625  164.6610 N.ar    1  UNL1       -0.1976
     26 C         139.1616  139.3394  164.1566 C.ar    1  UNL1        0.2220
     27 N         138.4746  138.4189  165.1214 N.ar    1  UNL1       -0.2110
     28 C         138.4945  138.7214  166.5904 C.ar    1  UNL1        0.1160
     29 C         139.2016  139.9445  167.0947 C.ar    1  UNL1        0.1085
     30 CL        139.2216  140.2470  168.5638 Cl      1  UNL1       -0.0777
     31 N         140.5957  142.0880  166.6343 N.pl3   1  UNL1       -0.2970
     32 H         140.3557  142.4696  167.5095 H       1  UNL1        0.1536
     33 C         141.3019  143.7239  164.7434 C.ar    1  UNL1        0.0668
     34 C         142.3746  144.3654  163.9141 C.ar    1  UNL1        0.0058
     35 C         143.8140  144.0125  164.1465 C.ar    1  UNL1        0.0002
     36 C         144.1806  143.0182  165.2080 C.ar    1  UNL1        0.0013
     37 C         143.1078  142.3767  166.0373 C.ar    1  UNL1        0.0148
     38 C         141.6685  142.7295  165.8050 C.ar    1  UNL1        0.0537
     39 C         137.7450  144.0139  163.0071 C.3     1  UNL1        0.1109
     40 N         139.1844  143.6611  163.2395 N.am    1  UNL1       -0.2991
     41 C         139.8627  144.0767  164.5111 C.2     1  UNL1        0.2471
     42 O         139.1016  144.8451  165.5505 O.2     1  UNL1       -0.2701
     43 H         139.6838  143.1567  162.5573 H       1  UNL1        0.1498
     44 O         141.9404  139.8196  161.9427 O.3     1  UNL1       -0.4705
     45 C         142.3030  138.4341  161.4967 C.3     1  UNL1        0.2525
@<TRIPOS>BOND
     1    39    40    1
     2    40    41   am
     3    41    42    2
     4    41    33    1
     5    33    34   ar
     6    34    35   ar
     7    35    36   ar
     8    36    37   ar
     9    37    38   ar
    10    38    31    1
    11    31    24    1
    12    24    25   ar
    13    25    26   ar
    14    26    22    1
    15    22     1    1
    16     1     2   ar
    17     2     3   ar
    18     3     4   ar
    19     4     5   ar
    20     5     6   ar
    21     6    44    1
    22    44    45    1
    23     5     7    1
    24     7     8    1
    25     8     9    1
    26     9    10    1
    27    10    12    1
    28    12    13    1
    29    13    14    1
    30    14    15    1
    31    15    18    1
    32    18    19    1
    33    19    20    1
    34    15    16    1
    35    16    17    1
    36    10    11    1
    37    26    27   ar
    38    27    28   ar
    39    28    29   ar
    40    29    30    1
    41    38    33   ar
    42    29    24   ar
    43     6     1   ar
    44    17    12    1
    45    11     4    1
    46    40    43    1
    47    31    32    1
    48    22    23    1
    49    20    21    1
@<TRIPOS>MOLECULE
*****
 45 49 0 0 0
SMALL
GASTEIGER

@<TRIPOS>ATOM
      1 C         142.6376  138.4744  159.6477 C.ar    1  UNL1        0.0846
      2 C         143.6858  138.6560  160.7052 C.ar    1  UNL1        0.0174
      3 C         143.2809  138.8785  162.1323 C.ar    1  UNL1       -0.0031
      4 C         141.8276  138.9193  162.5019 C.ar    1  UNL1       -0.0218
      5 C         140.7795  138.7376  161.4444 C.ar    1  UNL1        0.0091
      6 C         141.1844  138.5152  160.0174 C.ar    1  UNL1        0.1477
      7 C         139.2872  138.7432  161.5961 C.3     1  UNL1        0.0292
      8 C         138.4745  138.9318  162.8428 C.3     1  UNL1        0.0062
      9 C         138.9535  139.1614  164.2455 C.3     1  UNL1        0.0166
     10 C         140.3634  139.2591  164.7482 C.3     1  UNL1        0.0619
     11 C         141.6425  139.1514  163.9722 C.3     1  UNL1        0.0421
     12 N         140.5140  139.4959  166.2217 N.3     1  UNL1       -0.2713
     13 C         141.8741  139.4533  166.8530 C.3     1  UNL1        0.0896
     14 C         142.0247  139.6901  168.3266 C.3     1  UNL1        0.0897
     15 N         140.8153  139.9695  169.1688 N.3     1  UNL1       -0.2682
     16 C         139.4553  140.0121  168.5375 C.3     1  UNL1        0.0897
     17 C         139.3047  139.7753  167.0639 C.3     1  UNL1        0.0896
     18 C         140.9660  140.2063  170.6422 C.3     1  UNL1        0.1043
     19 C         141.3166  141.5735  171.1502 C.3     1  UNL1        0.1544
     20 O         140.4809  142.2136  172.2187 O.3     1  UNL1       -0.3805
     21 H         139.5931  142.3923  171.8712 H       1  UNL1        0.2105
     22 N         143.0426  138.2519  158.2207 N.pl3   1  UNL1       -0.2801
     23 H         142.9634  137.3559  157.8204 H       1  UNL1        0.1552
     24 C         143.9779  141.9422  157.0993 C.ar    1  UNL1        0.1472
     25 N         143.4522  140.7994  157.9165 N.ar    1  UNL1       -0.1976
     26 C         143.5684  139.3946  157.4035 C.ar    1  UNL1        0.2220
     27 N         144.2103  139.1326  156.0733 N.ar    1  UNL1       -0.2110
     28 C         144.7360  140.2753  155.2561 C.ar    1  UNL1        0.1160
     29 C         144.6198  141.6801  155.7691 C.ar    1  UNL1        0.1085
     30 CL        145.1456  142.8228  154.9519 Cl      1  UNL1       -0.0777
     31 N         143.8617  143.3469  157.6123 N.pl3   1  UNL1       -0.2970
     32 H         144.6160  143.7599  158.0917 H       1  UNL1        0.1536
     33 C         141.7032  144.4417  158.5571 C.ar    1  UNL1        0.0668
     34 C         140.4378  145.2172  158.3396 C.ar    1  UNL1        0.0058
     35 C         140.0654  145.6734  156.9601 C.ar    1  UNL1        0.0002
     36 C         140.9584  145.3542  155.7979 C.ar    1  UNL1        0.0013
     37 C         142.2238  144.5787  156.0153 C.ar    1  UNL1        0.0148
     38 C         142.5963  144.1224  157.3949 C.ar    1  UNL1        0.0537
     39 C         142.5101  144.5184  162.4420 C.3     1  UNL1        0.1109
     40 N         142.1377  144.9746  161.0624 N.am    1  UNL1       -0.2991
     41 C         142.0756  143.9855  159.9365 C.2     1  UNL1        0.2471
     42 O         142.3860  142.5400  160.1902 O.2     1  UNL1       -0.2701
     43 H         141.9340  145.9233  160.8960 H       1  UNL1        0.1498
     44 O         140.1362  138.3335  158.9599 O.3     1  UNL1       -0.4705
     45 C         139.7313  139.4926  158.0983 C.3     1  UNL1        0.2525
@<TRIPOS>BOND
     1    39    40    1
     2    40    41   am
     3    41    42    2
     4    41    33    1
     5    33    34   ar
     6    34    35   ar
     7    35    36   ar
     8    36    37   ar
     9    37    38   ar
    10    38    31    1
    11    31    24    1
    12    24    25   ar
    13    25    26   ar
    14    26    22    1
    15    22     1    1
    16     1     2   ar
    17     2     3   ar
    18     3     4   ar
    19     4     5   ar
    20     5     6   ar
    21     6    44    1
    22    44    45    1
    23     5     7    1
    24     7     8    1
    25     8     9    1
    26     9    10    1
    27    10    12    1
    28    12    13    1
    29    13    14    1
    30    14    15    1
    31    15    18    1
    32    18    19    1
    33    19    20    1
    34    15    16    1
    35    16    17    1
    36    10    11    1
    37    26    27   ar
    38    27    28   ar
    39    28    29   ar
    40    29    30    1
    41    38    33   ar
    42    29    24   ar
    43     6     1   ar
    44    17    12    1
    45    11     4    1
    46    40    43    1
    47    31    32    1
    48    22    23    1
    49    20    21    1
@<TRIPOS>MOLECULE
*****
 45 49 0 0 0
SMALL
GASTEIGER

@<TRIPOS>ATOM
      1 C         138.2002  139.9068  164.9280 C.ar    1  UNL1        0.0846
      2 C         137.6877  141.2631  164.5432 C.ar    1  UNL1        0.0174
      3 C         137.6625  141.6738  163.1007 C.ar    1  UNL1       -0.0031
      4 C         138.1498  140.7282  162.0430 C.ar    1  UNL1       -0.0218
      5 C         138.6622  139.3721  162.4279 C.ar    1  UNL1        0.0091
      6 C         138.6874  138.9613  163.8703 C.ar    1  UNL1        0.1477
      7 C         139.1903  138.2850  161.5393 C.3     1  UNL1        0.0292
      8 C         139.3364  138.2858  160.0463 C.3     1  UNL1        0.0062
      9 C         138.9905  139.3737  159.0735 C.3     1  UNL1        0.0166
     10 C         138.4130  140.7296  159.3530 C.3     1  UNL1        0.0619
     11 C         138.0389  141.3324  160.6746 C.3     1  UNL1        0.0421
     12 N         138.1787  141.5974  158.1522 N.3     1  UNL1       -0.2713
     13 C         137.1063  141.2398  157.1661 C.3     1  UNL1        0.0896
     14 C         136.8721  142.1077  155.9653 C.3     1  UNL1        0.0897
     15 N         137.7101  143.3331  155.7504 N.3     1  UNL1       -0.2682
     16 C         138.7824  143.6907  156.7365 C.3     1  UNL1        0.0897
     17 C         139.0167  142.8228  157.9374 C.3     1  UNL1        0.0896
     18 C         137.4758  144.2009  154.5497 C.3     1  UNL1        0.1043
     19 C         137.6720  145.6849  154.6469 C.3     1  UNL1        0.1544
     20 O         138.9889  146.2938  154.2665 O.3     1  UNL1       -0.3805
     21 H         139.6731  145.9986  154.8875 H       1  UNL1        0.2105
     22 N         138.2253  139.4962  166.3704 N.pl3   1  UNL1       -0.2801
     23 H         137.4704  138.9926  166.7521 H       1  UNL1        0.1552
     24 C         141.8369  140.7253  167.4640 C.ar    1  UNL1        0.1472
     25 N         140.6615  140.3686  166.6031 N.ar    1  UNL1       -0.1976
     26 C         139.4008  139.8528  167.2313 C.ar    1  UNL1        0.2220
     27 N         139.3156  139.6937  168.7205 N.ar    1  UNL1       -0.2110
     28 C         140.4910  140.0504  169.5813 C.ar    1  UNL1        0.1160
     29 C         141.7517  140.5662  168.9531 C.ar    1  UNL1        0.1085
     30 CL        142.9271  140.9228  169.8140 Cl      1  UNL1       -0.0777
     31 N         143.0976  141.2411  166.8357 N.pl3   1  UNL1       -0.2970
     32 H         143.6434  141.9119  167.3062 H       1  UNL1        0.1536
     33 C         143.5143  141.6532  164.3045 C.ar    1  UNL1        0.0668
     34 C         143.9434  141.1469  162.9593 C.ar    1  UNL1        0.0058
     35 C         144.3847  139.7222  162.8000 C.ar    1  UNL1        0.0002
     36 C         144.3970  138.8037  163.9859 C.ar    1  UNL1        0.0013
     37 C         143.9680  139.3100  165.3311 C.ar    1  UNL1        0.0148
     38 C         143.5266  140.7348  165.4905 C.ar    1  UNL1        0.0537
     39 C         143.4783  145.6153  164.0799 C.3     1  UNL1        0.1109
     40 N         143.9196  144.1906  163.9206 N.am    1  UNL1       -0.2991
     41 C         143.0730  143.0779  164.4638 C.2     1  UNL1        0.2471
     42 O         141.7850  143.3900  165.1664 O.2     1  UNL1       -0.2701
     43 H         144.7650  143.9858  163.4595 H       1  UNL1        0.1498
     44 O         139.1999  137.6051  164.2551 O.3     1  UNL1       -0.4705
     45 C         140.6452  137.4231  164.6123 C.3     1  UNL1        0.2525
@<TRIPOS>BOND
     1    39    40    1
     2    40    41   am
     3    41    42    2
     4    41    33    1
     5    33    34   ar
     6    34    35   ar
     7    35    36   ar
     8    36    37   ar
     9    37    38   ar
    10    38    31    1
    11    31    24    1
    12    24    25   ar
    13    25    26   ar
    14    26    22    1
    15    22     1    1
    16     1     2   ar
    17     2     3   ar
    18     3     4   ar
    19     4     5   ar
    20     5     6   ar
    21     6    44    1
    22    44    45    1
    23     5     7    1
    24     7     8    1
    25     8     9    1
    26     9    10    1
    27    10    12    1
    28    12    13    1
    29    13    14    1
    30    14    15    1
    31    15    18    1
    32    18    19    1
    33    19    20    1
    34    15    16    1
    35    16    17    1
    36    10    11    1
    37    26    27   ar
    38    27    28   ar
    39    28    29   ar
    40    29    30    1
    41    38    33   ar
    42    29    24   ar
    43     6     1   ar
    44    17    12    1
    45    11     4    1
    46    40    43    1
    47    31    32    1
    48    22    23    1
    49    20    21    1
