@<TRIPOS>MOLECULE
*****
 35 39 0 0 0
SMALL
GASTEIGER

@<TRIPOS>ATOM
      1 N         141.5695  140.7448  162.1985 N.pl3   1  UNL1       -0.2803
      2 H         141.4928  140.8877  161.2274 H       1  UNL1        0.1551
      3 C         140.4846  140.0192  162.9378 C.ar    1  UNL1        0.2220
      4 N         139.4018  139.1854  162.3194 N.ar    1  UNL1       -0.2104
      5 C         138.5401  138.6509  163.4247 C.ar    1  UNL1        0.1210
      6 C         139.0904  139.1542  164.7262 C.ar    1  UNL1        0.1049
      7 C         138.6524  138.9518  166.1465 C.ar    1  UNL1        0.0224
      8 C         139.4162  139.5950  167.2657 C.ar    1  UNL1        0.0226
      9 C         140.6180  140.4406  166.9648 C.ar    1  UNL1        0.1057
     10 N         141.0560  140.6431  165.5446 N.ar    1  UNL1       -0.1626
     11 N         140.2922  139.9999  164.4253 N.ar    1  UNL1       -0.1984
     12 C         141.3818  141.0838  168.0842 C.ar    1  UNL1        0.0742
     13 C         141.0744  142.4954  168.4879 C.ar    1  UNL1        0.1438
     14 F         140.0032  143.2638  167.7723 F       1  UNL1       -0.2040
     15 C         141.8382  143.1386  169.6073 C.ar    1  UNL1        0.0298
     16 C         142.9094  142.3702  170.3229 C.ar    1  UNL1        0.0046
     17 C         143.2168  140.9586  169.9191 C.ar    1  UNL1        0.0298
     18 C         142.4530  140.3155  168.7998 C.ar    1  UNL1        0.1438
     19 F         142.7604  138.9038  168.3960 F       1  UNL1       -0.2040
     20 C         142.7811  142.6504  163.4834 C.ar    1  UNL1        0.0646
     21 C         143.9828  143.1582  164.2236 C.ar    1  UNL1        0.0364
     22 C         145.1746  142.2686  164.4192 C.ar    1  UNL1        0.1002
     23 N         145.1647  140.8710  163.8746 N.ar    1  UNL1       -0.2409
     24 C         143.9630  140.3631  163.1344 C.ar    1  UNL1        0.1147
     25 C         142.7712  141.2528  162.9388 C.ar    1  UNL1        0.0834
     26 C         138.5325  144.9633  165.3806 C.3     1  UNL1        0.0018
     27 C         139.4651  144.6965  164.2364 C.3     1  UNL1        0.0212
     28 C         139.2059  145.3193  162.8967 C.3     1  UNL1        0.0189
     29 C         140.1385  145.0525  161.7525 C.3     1  UNL1        0.0709
     30 N         139.8793  145.6753  160.4128 N.3     1  UNL1       -0.3208
     31 C         141.3302  144.1628  161.9481 C.3     1  UNL1        0.1062
     32 N         141.5894  143.5400  163.2878 N.pl3   1  UNL1       -0.3051
     33 C         140.6568  143.8069  164.4320 C.3     1  UNL1        0.0909
     34 H         139.0342  146.2445  160.4603 H       1  UNL1        0.1189
     35 H         139.7563  144.9417  159.7149 H       1  UNL1        0.1189
@<TRIPOS>BOND
     1    27    26    1
     2    27    28    1
     3    28    29    1
     4    29    30    1
     5    29    31    1
     6    31    32    1
     7    32    20    1
     8    20    21   ar
     9    21    22   ar
    10    22    23   ar
    11    23    24   ar
    12    24    25   ar
    13    25     1    1
    14     1     3    1
    15     3     4   ar
    16     4     5   ar
    17     5     6   ar
    18     6     7   ar
    19     7     8   ar
    20     8     9   ar
    21     9    12    1
    22    12    13   ar
    23    13    14    1
    24    13    15   ar
    25    15    16   ar
    26    16    17   ar
    27    17    18   ar
    28    18    19    1
    29     9    10   ar
    30    10    11   ar
    31    32    33    1
    32    33    27    1
    33    25    20   ar
    34    11     3   ar
    35    11     6   ar
    36    18    12   ar
    37    30    34    1
    38    30    35    1
    39     1     2    1
@<TRIPOS>MOLECULE
*****
 35 39 0 0 0
SMALL
GASTEIGER

@<TRIPOS>ATOM
      1 N         142.4395  141.8892  161.3716 N.pl3   1  UNL1       -0.2803
      2 H         143.2654  141.9424  161.9047 H       1  UNL1        0.1551
      3 C         141.6723  140.6020  161.3038 C.ar    1  UNL1        0.2220
      4 N         141.3345  139.8416  160.0557 N.ar    1  UNL1       -0.2104
      5 C         140.5616  138.6189  160.4527 C.ar    1  UNL1        0.1210
      6 C         140.4217  138.6236  161.9462 C.ar    1  UNL1        0.1049
      7 C         139.7579  137.6703  162.8951 C.ar    1  UNL1        0.0224
      8 C         139.7805  137.9425  164.3699 C.ar    1  UNL1        0.0226
      9 C         140.4670  139.1682  164.8959 C.ar    1  UNL1        0.1057
     10 N         141.1307  140.1215  163.9470 N.ar    1  UNL1       -0.1626
     11 N         141.1081  139.8493  162.4722 N.ar    1  UNL1       -0.1984
     12 C         140.4896  139.4404  166.3709 C.ar    1  UNL1        0.0742
     13 C         139.2024  139.6100  167.1221 C.ar    1  UNL1        0.1438
     14 F         137.8925  139.5074  166.3984 F       1  UNL1       -0.2040
     15 C         139.2250  139.8823  168.5970 C.ar    1  UNL1        0.0298
     16 C         140.5349  139.9849  169.3207 C.ar    1  UNL1        0.0046
     17 C         141.8221  139.8152  168.5695 C.ar    1  UNL1        0.0298
     18 C         141.7994  139.5430  167.0946 C.ar    1  UNL1        0.1438
     19 F         143.0867  139.3734  166.3433 F       1  UNL1       -0.2040
     20 C         140.7090  143.8059  161.0847 C.ar    1  UNL1        0.0646
     21 C         140.2179  145.0118  160.3402 C.ar    1  UNL1        0.0364
     22 C         140.9659  145.5072  159.1381 C.ar    1  UNL1        0.1002
     23 N         142.2051  144.7966  158.6805 N.ar    1  UNL1       -0.2409
     24 C         142.6962  143.5907  159.4250 C.ar    1  UNL1        0.1147
     25 C         141.9482  143.0953  160.6271 C.ar    1  UNL1        0.0834
     26 C         140.3303  143.2571  166.2379 C.3     1  UNL1        0.0018
     27 C         139.7716  143.0360  164.8634 C.3     1  UNL1        0.0212
     28 C         138.4651  142.3197  164.6911 C.3     1  UNL1        0.0189
     29 C         137.9065  142.0987  163.3166 C.3     1  UNL1        0.0709
     30 N         136.6000  141.3823  163.1443 N.3     1  UNL1       -0.3208
     31 C         138.6545  142.5941  162.1145 C.3     1  UNL1        0.1062
     32 N         139.9610  143.3105  162.2868 N.pl3   1  UNL1       -0.3051
     33 C         140.5196  143.5314  163.6613 C.3     1  UNL1        0.0909
     34 H         136.2338  141.1184  164.0590 H       1  UNL1        0.1189
     35 H         136.7434  140.5443  162.5808 H       1  UNL1        0.1189
@<TRIPOS>BOND
     1    27    26    1
     2    27    28    1
     3    28    29    1
     4    29    30    1
     5    29    31    1
     6    31    32    1
     7    32    20    1
     8    20    21   ar
     9    21    22   ar
    10    22    23   ar
    11    23    24   ar
    12    24    25   ar
    13    25     1    1
    14     1     3    1
    15     3     4   ar
    16     4     5   ar
    17     5     6   ar
    18     6     7   ar
    19     7     8   ar
    20     8     9   ar
    21     9    12    1
    22    12    13   ar
    23    13    14    1
    24    13    15   ar
    25    15    16   ar
    26    16    17   ar
    27    17    18   ar
    28    18    19    1
    29     9    10   ar
    30    10    11   ar
    31    32    33    1
    32    33    27    1
    33    25    20   ar
    34    11     3   ar
    35    11     6   ar
    36    18    12   ar
    37    30    34    1
    38    30    35    1
    39     1     2    1
@<TRIPOS>MOLECULE
*****
 35 39 0 0 0
SMALL
GASTEIGER

@<TRIPOS>ATOM
      1 N         141.7952  141.9238  160.7162 N.pl3   1  UNL1       -0.2803
      2 H         142.7417  141.8505  160.4552 H       1  UNL1        0.1551
      3 C         140.9449  140.6915  160.8078 C.ar    1  UNL1        0.2220
      4 N         140.2294  140.0273  159.6690 N.ar    1  UNL1       -0.2104
      5 C         139.5031  138.8324  160.2117 C.ar    1  UNL1        0.1210
      6 C         139.7697  138.7580  161.6860 C.ar    1  UNL1        0.1049
      7 C         139.3162  137.7925  162.7405 C.ar    1  UNL1        0.0224
      8 C         139.7538  137.9759  164.1634 C.ar    1  UNL1        0.0226
      9 C         140.6449  139.1250  164.5318 C.ar    1  UNL1        0.1057
     10 N         141.0984  140.0905  163.4773 N.ar    1  UNL1       -0.1626
     11 N         140.6608  139.9070  162.0544 N.ar    1  UNL1       -0.1984
     12 C         141.0825  139.3084  165.9549 C.ar    1  UNL1        0.0742
     13 C         140.1316  139.8804  166.9641 C.ar    1  UNL1        0.1438
     14 F         138.7431  140.2689  166.5504 F       1  UNL1       -0.2040
     15 C         140.5692  140.0638  168.3871 C.ar    1  UNL1        0.0298
     16 C         141.9577  139.6753  168.8008 C.ar    1  UNL1        0.0046
     17 C         142.9087  139.1033  167.7915 C.ar    1  UNL1        0.0298
     18 C         142.4710  138.9199  166.3685 C.ar    1  UNL1        0.1438
     19 F         143.4219  138.3480  165.3592 F       1  UNL1       -0.2040
     20 C         141.6198  144.0063  162.2598 C.ar    1  UNL1        0.0646
     21 C         141.0281  145.3502  162.5659 C.ar    1  UNL1        0.0364
     22 C         140.0201  145.9556  161.6345 C.ar    1  UNL1        0.1002
     23 N         139.6038  145.2172  160.3970 N.ar    1  UNL1       -0.2409
     24 C         140.1956  143.8733  160.0910 C.ar    1  UNL1        0.1147
     25 C         141.2035  143.2678  161.0223 C.ar    1  UNL1        0.0834
     26 C         143.0172  142.5495  167.0478 C.3     1  UNL1        0.0018
     27 C         143.3265  142.6724  165.5852 C.3     1  UNL1        0.0212
     28 C         144.6437  142.1899  165.0539 C.3     1  UNL1        0.0189
     29 C         144.9529  142.3128  163.5912 C.3     1  UNL1        0.0709
     30 N         146.2700  141.8303  163.0601 N.3     1  UNL1       -0.3208
     31 C         143.9449  142.9183  162.6599 C.3     1  UNL1        0.1062
     32 N         142.6278  143.4008  163.1912 N.pl3   1  UNL1       -0.3051
     33 C         142.3186  143.2778  164.6538 C.3     1  UNL1        0.0909
     34 H         146.8272  141.4513  163.8258 H       1  UNL1        0.1189
     35 H         146.7688  142.6089  162.6296 H       1  UNL1        0.1189
@<TRIPOS>BOND
     1    27    26    1
     2    27    28    1
     3    28    29    1
     4    29    30    1
     5    29    31    1
     6    31    32    1
     7    32    20    1
     8    20    21   ar
     9    21    22   ar
    10    22    23   ar
    11    23    24   ar
    12    24    25   ar
    13    25     1    1
    14     1     3    1
    15     3     4   ar
    16     4     5   ar
    17     5     6   ar
    18     6     7   ar
    19     7     8   ar
    20     8     9   ar
    21     9    12    1
    22    12    13   ar
    23    13    14    1
    24    13    15   ar
    25    15    16   ar
    26    16    17   ar
    27    17    18   ar
    28    18    19    1
    29     9    10   ar
    30    10    11   ar
    31    32    33    1
    32    33    27    1
    33    25    20   ar
    34    11     3   ar
    35    11     6   ar
    36    18    12   ar
    37    30    34    1
    38    30    35    1
    39     1     2    1
@<TRIPOS>MOLECULE
*****
 35 39 0 0 0
SMALL
GASTEIGER

@<TRIPOS>ATOM
      1 N         142.6487  138.3749  162.9605 N.pl3   1  UNL1       -0.2803
      2 H         143.4079  138.0521  163.4977 H       1  UNL1        0.1551
      3 C         141.2525  138.2760  163.4998 C.ar    1  UNL1        0.2220
      4 N         140.0967  137.5899  162.8339 N.ar    1  UNL1       -0.2104
      5 C         138.8969  137.7357  163.7223 C.ar    1  UNL1        0.1210
      6 C         139.3111  138.5119  164.9372 C.ar    1  UNL1        0.1049
      7 C         138.5508  138.9578  166.1508 C.ar    1  UNL1        0.0224
      8 C         139.2463  139.7375  167.2270 C.ar    1  UNL1        0.0226
      9 C         140.7022  140.0714  167.0895 C.ar    1  UNL1        0.1057
     10 N         141.4626  139.6256  165.8758 N.ar    1  UNL1       -0.1626
     11 N         140.7670  138.8458  164.7997 N.ar    1  UNL1       -0.1984
     12 C         141.3978  140.8512  168.1657 C.ar    1  UNL1        0.0742
     13 C         141.0294  142.2845  168.4106 C.ar    1  UNL1        0.1438
     14 F         139.9656  142.9381  167.5793 F       1  UNL1       -0.2040
     15 C         141.7250  143.0643  169.4868 C.ar    1  UNL1        0.0298
     16 C         142.7888  142.4107  170.3182 C.ar    1  UNL1        0.0046
     17 C         143.1571  140.9774  170.0732 C.ar    1  UNL1        0.0298
     18 C         142.4616  140.1977  168.9970 C.ar    1  UNL1        0.1438
     19 F         142.8299  138.7643  168.7521 F       1  UNL1       -0.2040
     20 C         142.7652  140.4464  161.3965 C.ar    1  UNL1        0.0646
     21 C         143.0046  141.0370  160.0387 C.ar    1  UNL1        0.0364
     22 C         143.3669  140.1470  158.8869 C.ar    1  UNL1        0.1002
     23 N         143.4898  138.6663  159.0929 N.ar    1  UNL1       -0.2409
     24 C         143.2504  138.0757  160.4508 C.ar    1  UNL1        0.1147
     25 C         142.8881  138.9657  161.6025 C.ar    1  UNL1        0.0834
     26 C         144.1372  143.0362  165.6872 C.3     1  UNL1        0.0018
     27 C         143.0888  142.6313  164.6937 C.3     1  UNL1        0.0212
     28 C         141.6783  143.1163  164.8519 C.3     1  UNL1        0.0189
     29 C         140.6300  142.7114  163.8583 C.3     1  UNL1        0.0709
     30 N         139.2195  143.1964  164.0166 N.3     1  UNL1       -0.3208
     31 C         140.9923  141.8214  162.7065 C.3     1  UNL1        0.1062
     32 N         142.4029  141.3363  162.5483 N.pl3   1  UNL1       -0.3051
     33 C         143.4511  141.7413  163.5419 C.3     1  UNL1        0.0909
     34 H         139.1538  143.7857  164.8466 H       1  UNL1        0.1189
     35 H         138.5942  142.3969  164.1169 H       1  UNL1        0.1189
@<TRIPOS>BOND
     1    27    26    1
     2    27    28    1
     3    28    29    1
     4    29    30    1
     5    29    31    1
     6    31    32    1
     7    32    20    1
     8    20    21   ar
     9    21    22   ar
    10    22    23   ar
    11    23    24   ar
    12    24    25   ar
    13    25     1    1
    14     1     3    1
    15     3     4   ar
    16     4     5   ar
    17     5     6   ar
    18     6     7   ar
    19     7     8   ar
    20     8     9   ar
    21     9    12    1
    22    12    13   ar
    23    13    14    1
    24    13    15   ar
    25    15    16   ar
    26    16    17   ar
    27    17    18   ar
    28    18    19    1
    29     9    10   ar
    30    10    11   ar
    31    32    33    1
    32    33    27    1
    33    25    20   ar
    34    11     3   ar
    35    11     6   ar
    36    18    12   ar
    37    30    34    1
    38    30    35    1
    39     1     2    1
@<TRIPOS>MOLECULE
*****
 35 39 0 0 0
SMALL
GASTEIGER

@<TRIPOS>ATOM
      1 N         142.4821  141.8101  161.4084 N.pl3   1  UNL1       -0.2803
      2 H         142.2836  142.3827  160.6325 H       1  UNL1        0.1551
      3 C         141.9892  140.3938  161.4411 C.ar    1  UNL1        0.2220
      4 N         141.7778  139.5061  160.2506 N.ar    1  UNL1       -0.2104
      5 C         141.2791  138.1803  160.7439 C.ar    1  UNL1        0.1210
      6 C         141.1823  138.2485  162.2392 C.ar    1  UNL1        0.1049
      7 C         140.7512  137.2416  163.2640 C.ar    1  UNL1        0.0224
      8 C         140.7590  137.6029  164.7198 C.ar    1  UNL1        0.0226
      9 C         141.1979  138.9710  165.1508 C.ar    1  UNL1        0.1057
     10 N         141.6289  139.9778  164.1259 N.ar    1  UNL1       -0.1626
     11 N         141.6211  139.6166  162.6701 N.ar    1  UNL1       -0.1984
     12 C         141.2056  139.3322  166.6067 C.ar    1  UNL1        0.0742
     13 C         142.4648  139.1869  167.4087 C.ar    1  UNL1        0.1438
     14 F         143.7162  138.6803  166.7550 F       1  UNL1       -0.2040
     15 C         142.4726  139.5481  168.8646 C.ar    1  UNL1        0.0298
     16 C         141.2212  140.0546  169.5184 C.ar    1  UNL1        0.0046
     17 C         139.9620  140.2000  168.7162 C.ar    1  UNL1        0.0298
     18 C         139.9542  139.8388  167.2604 C.ar    1  UNL1        0.1438
     19 F         138.6950  139.9841  166.4582 F       1  UNL1       -0.2040
     20 C         142.6549  143.3410  163.5005 C.ar    1  UNL1        0.0646
     21 C         143.4503  143.8850  164.6500 C.ar    1  UNL1        0.0364
     22 C         144.8684  143.4422  164.8569 C.ar    1  UNL1        0.1002
     23 N         145.4912  142.4553  163.9144 N.ar    1  UNL1       -0.2409
     24 C         144.6957  141.9114  162.7649 C.ar    1  UNL1        0.1147
     25 C         143.2776  142.3542  162.5580 C.ar    1  UNL1        0.0834
     26 C         137.5760  142.7517  164.4263 C.3     1  UNL1        0.0018
     27 C         138.6973  143.4892  163.7564 C.3     1  UNL1        0.0212
     28 C         138.4005  144.6695  162.8796 C.3     1  UNL1        0.0189
     29 C         139.5219  145.4070  162.2098 C.3     1  UNL1        0.0709
     30 N         139.2251  146.5873  161.3330 N.3     1  UNL1       -0.3208
     31 C         140.9400  144.9642  162.4167 C.3     1  UNL1        0.1062
     32 N         141.2368  143.7839  163.2935 N.pl3   1  UNL1       -0.3051
     33 C         140.1154  143.0464  163.9634 C.3     1  UNL1        0.0909
     34 H         138.2178  146.7457  161.3056 H       1  UNL1        0.1189
     35 H         139.5662  146.4042  160.3894 H       1  UNL1        0.1189
@<TRIPOS>BOND
     1    27    26    1
     2    27    28    1
     3    28    29    1
     4    29    30    1
     5    29    31    1
     6    31    32    1
     7    32    20    1
     8    20    21   ar
     9    21    22   ar
    10    22    23   ar
    11    23    24   ar
    12    24    25   ar
    13    25     1    1
    14     1     3    1
    15     3     4   ar
    16     4     5   ar
    17     5     6   ar
    18     6     7   ar
    19     7     8   ar
    20     8     9   ar
    21     9    12    1
    22    12    13   ar
    23    13    14    1
    24    13    15   ar
    25    15    16   ar
    26    16    17   ar
    27    17    18   ar
    28    18    19    1
    29     9    10   ar
    30    10    11   ar
    31    32    33    1
    32    33    27    1
    33    25    20   ar
    34    11     3   ar
    35    11     6   ar
    36    18    12   ar
    37    30    34    1
    38    30    35    1
    39     1     2    1
@<TRIPOS>MOLECULE
*****
 35 39 0 0 0
SMALL
GASTEIGER

@<TRIPOS>ATOM
      1 N         138.7766  140.2508  162.5965 N.pl3   1  UNL1       -0.2803
      2 H         138.0884  140.4383  163.2751 H       1  UNL1        0.1551
      3 C         140.0264  139.5149  162.9793 C.ar    1  UNL1        0.2220
      4 N         140.7879  138.5588  162.1098 N.ar    1  UNL1       -0.2104
      5 C         141.9662  138.0589  162.8919 C.ar    1  UNL1        0.1210
      6 C         141.9329  138.7060  164.2448 C.ar    1  UNL1        0.1049
      7 C         142.8393  138.5921  165.4344 C.ar    1  UNL1        0.0224
      8 C         142.5468  139.3780  166.6781 C.ar    1  UNL1        0.0226
      9 C         141.3479  140.2778  166.7321 C.ar    1  UNL1        0.1057
     10 N         140.4415  140.3917  165.5424 N.ar    1  UNL1       -0.1626
     11 N         140.7340  139.6058  164.2988 N.ar    1  UNL1       -0.1984
     12 C         141.0555  141.0637  167.9759 C.ar    1  UNL1        0.0742
     13 C         141.9780  142.1680  168.3995 C.ar    1  UNL1        0.1438
     14 F         143.1929  142.4865  167.5794 F       1  UNL1       -0.2040
     15 C         141.6855  142.9540  169.6432 C.ar    1  UNL1        0.0298
     16 C         140.4706  142.6355  170.4633 C.ar    1  UNL1        0.0046
     17 C         139.5481  141.5311  170.0396 C.ar    1  UNL1        0.0298
     18 C         139.8406  140.7453  168.7959 C.ar    1  UNL1        0.1438
     19 F         138.9181  139.6409  168.3722 F       1  UNL1       -0.2040
     20 C         138.9893  142.0819  160.7657 C.ar    1  UNL1        0.0646
     21 C         138.7881  142.5320  159.3491 C.ar    1  UNL1        0.0364
     22 C         138.1728  141.6011  158.3466 C.ar    1  UNL1        0.1002
     23 N         137.7588  140.2202  158.7607 N.ar    1  UNL1       -0.2409
     24 C         137.9601  139.7701  160.1773 C.ar    1  UNL1        0.1147
     25 C         138.5753  140.7009  161.1798 C.ar    1  UNL1        0.0834
     26 C         138.6504  144.8054  165.1779 C.3     1  UNL1        0.0018
     27 C         139.4352  144.3745  163.9743 C.3     1  UNL1        0.0212
     28 C         140.8350  144.8744  163.7732 C.3     1  UNL1        0.0189
     29 C         141.6197  144.4435  162.5696 C.3     1  UNL1        0.0709
     30 N         143.0195  144.9434  162.3686 N.3     1  UNL1       -0.3208
     31 C         141.0044  143.5126  161.5671 C.3     1  UNL1        0.1062
     32 N         139.6046  143.0127  161.7682 N.pl3   1  UNL1       -0.3051
     33 C         138.8199  143.4437  162.9718 C.3     1  UNL1        0.0909
     34 H         143.2741  145.5607  163.1396 H       1  UNL1        0.1189
     35 H         143.0740  145.4574  161.4892 H       1  UNL1        0.1189
@<TRIPOS>BOND
     1    27    26    1
     2    27    28    1
     3    28    29    1
     4    29    30    1
     5    29    31    1
     6    31    32    1
     7    32    20    1
     8    20    21   ar
     9    21    22   ar
    10    22    23   ar
    11    23    24   ar
    12    24    25   ar
    13    25     1    1
    14     1     3    1
    15     3     4   ar
    16     4     5   ar
    17     5     6   ar
    18     6     7   ar
    19     7     8   ar
    20     8     9   ar
    21     9    12    1
    22    12    13   ar
    23    13    14    1
    24    13    15   ar
    25    15    16   ar
    26    16    17   ar
    27    17    18   ar
    28    18    19    1
    29     9    10   ar
    30    10    11   ar
    31    32    33    1
    32    33    27    1
    33    25    20   ar
    34    11     3   ar
    35    11     6   ar
    36    18    12   ar
    37    30    34    1
    38    30    35    1
    39     1     2    1
@<TRIPOS>MOLECULE
*****
 35 39 0 0 0
SMALL
GASTEIGER

@<TRIPOS>ATOM
      1 N         139.4478  142.8582  162.6111 N.pl3   1  UNL1       -0.2803
      2 H         138.7429  143.2830  163.1513 H       1  UNL1        0.1551
      3 C         140.8916  143.0946  162.9424 C.ar    1  UNL1        0.2220
      4 N         141.9304  143.6477  162.0125 N.ar    1  UNL1       -0.2104
      5 C         143.2308  143.7142  162.7572 C.ar    1  UNL1        0.1210
      6 C         142.9956  143.2023  164.1474 C.ar    1  UNL1        0.1049
      7 C         143.9111  143.0355  165.3238 C.ar    1  UNL1        0.0224
      8 C         143.3808  142.4856  166.6147 C.ar    1  UNL1        0.0226
      9 C         141.9350  142.1026  166.7292 C.ar    1  UNL1        0.1057
     10 N         141.0195  142.2695  165.5528 N.ar    1  UNL1       -0.1626
     11 N         141.5498  142.8194  164.2619 N.ar    1  UNL1       -0.1984
     12 C         141.4048  141.5528  168.0201 C.ar    1  UNL1        0.0742
     13 C         141.8414  140.1982  168.4940 C.ar    1  UNL1        0.1438
     14 F         142.8082  139.3935  167.6769 F       1  UNL1       -0.2040
     15 C         141.3111  139.6483  169.7850 C.ar    1  UNL1        0.0298
     16 C         140.3442  140.4531  170.6020 C.ar    1  UNL1        0.0046
     17 C         139.9076  141.8077  170.1281 C.ar    1  UNL1        0.0298
     18 C         140.4379  142.3575  168.8372 C.ar    1  UNL1        0.1438
     19 F         140.0013  143.7121  168.3633 F       1  UNL1       -0.2040
     20 C         139.1367  140.4831  161.6049 C.ar    1  UNL1        0.0646
     21 C         138.7670  139.5996  160.4505 C.ar    1  UNL1        0.0364
     22 C         138.3389  140.2076  159.1478 C.ar    1  UNL1        0.1002
     23 N         138.2803  141.6991  158.9995 N.ar    1  UNL1       -0.2409
     24 C         138.6500  142.5825  160.1539 C.ar    1  UNL1        0.1147
     25 C         139.0782  141.9746  161.4566 C.ar    1  UNL1        0.0834
     26 C         138.0032  138.9169  166.4280 C.3     1  UNL1        0.0018
     27 C         138.9982  139.0921  165.3192 C.3     1  UNL1        0.0212
     28 C         140.4212  138.6593  165.5131 C.3     1  UNL1        0.0189
     29 C         141.4161  138.8345  164.4042 C.3     1  UNL1        0.0709
     30 N         142.8391  138.4017  164.5982 N.3     1  UNL1       -0.3208
     31 C         140.9879  139.4424  163.1015 C.3     1  UNL1        0.1062
     32 N         139.5649  139.8752  162.9076 N.pl3   1  UNL1       -0.3051
     33 C         138.5700  139.7000  164.0165 C.3     1  UNL1        0.0909
     34 H         142.9519  138.0137  165.5348 H       1  UNL1        0.1189
     35 H         143.4572  139.2054  164.4864 H       1  UNL1        0.1189
@<TRIPOS>BOND
     1    27    26    1
     2    27    28    1
     3    28    29    1
     4    29    30    1
     5    29    31    1
     6    31    32    1
     7    32    20    1
     8    20    21   ar
     9    21    22   ar
    10    22    23   ar
    11    23    24   ar
    12    24    25   ar
    13    25     1    1
    14     1     3    1
    15     3     4   ar
    16     4     5   ar
    17     5     6   ar
    18     6     7   ar
    19     7     8   ar
    20     8     9   ar
    21     9    12    1
    22    12    13   ar
    23    13    14    1
    24    13    15   ar
    25    15    16   ar
    26    16    17   ar
    27    17    18   ar
    28    18    19    1
    29     9    10   ar
    30    10    11   ar
    31    32    33    1
    32    33    27    1
    33    25    20   ar
    34    11     3   ar
    35    11     6   ar
    36    18    12   ar
    37    30    34    1
    38    30    35    1
    39     1     2    1
@<TRIPOS>MOLECULE
*****
 35 39 0 0 0
SMALL
GASTEIGER

@<TRIPOS>ATOM
      1 N         140.5451  143.3884  163.5353 N.pl3   1  UNL1       -0.2803
      2 H         141.0978  143.7269  164.2764 H       1  UNL1        0.1551
      3 C         139.6080  142.2395  163.7627 C.ar    1  UNL1        0.2220
      4 N         138.5923  141.7237  162.7867 N.ar    1  UNL1       -0.2104
      5 C         137.8786  140.5700  163.4269 C.ar    1  UNL1        0.1210
      6 C         138.4531  140.3729  164.7984 C.ar    1  UNL1        0.1049
      7 C         138.1411  139.3871  165.8851 C.ar    1  UNL1        0.0224
      8 C         138.8979  139.4331  167.1793 C.ar    1  UNL1        0.0226
      9 C         139.9667  140.4649  167.3868 C.ar    1  UNL1        0.1057
     10 N         140.2787  141.4507  166.3002 N.ar    1  UNL1       -0.1626
     11 N         139.5219  141.4046  165.0059 N.ar    1  UNL1       -0.1984
     12 C         140.7236  140.5109  168.6812 C.ar    1  UNL1        0.0742
     13 C         139.9940  140.7589  169.9681 C.ar    1  UNL1        0.1438
     14 F         138.5077  140.9608  169.9608 F       1  UNL1       -0.2040
     15 C         140.7509  140.8048  171.2624 C.ar    1  UNL1        0.0298
     16 C         142.2372  140.6029  171.2697 C.ar    1  UNL1        0.0046
     17 C         142.9667  140.3550  169.9827 C.ar    1  UNL1        0.0298
     18 C         142.2099  140.3090  168.6884 C.ar    1  UNL1        0.1438
     19 F         142.9394  140.0610  167.4014 F       1  UNL1       -0.2040
     20 C         141.6532  143.5265  161.1894 C.ar    1  UNL1        0.0646
     21 C         141.7483  144.1596  159.8329 C.ar    1  UNL1        0.0364
     22 C         140.8305  145.2878  159.4658 C.ar    1  UNL1        0.1002
     23 N         139.8175  145.7829  160.4551 N.ar    1  UNL1       -0.2409
     24 C         139.7224  145.1497  161.8116 C.ar    1  UNL1        0.1147
     25 C         140.6403  144.0215  162.1787 C.ar    1  UNL1        0.0834
     26 C         142.6485  138.4323  161.4325 C.3     1  UNL1        0.0018
     27 C         143.0687  139.8512  161.6781 C.3     1  UNL1        0.0212
     28 C         144.4067  140.1419  162.2908 C.3     1  UNL1        0.0189
     29 C         144.8268  141.5608  162.5364 C.3     1  UNL1        0.0709
     30 N         146.1647  141.8514  163.1491 N.3     1  UNL1       -0.3208
     31 C         143.9090  142.6890  162.1692 C.3     1  UNL1        0.1062
     32 N         142.5710  142.3983  161.5565 N.pl3   1  UNL1       -0.3051
     33 C         142.1509  140.9794  161.3110 C.3     1  UNL1        0.0909
     34 H         146.6522  140.9745  163.3329 H       1  UNL1        0.1189
     35 H         146.0348  142.3583  164.0246 H       1  UNL1        0.1189
@<TRIPOS>BOND
     1    27    26    1
     2    27    28    1
     3    28    29    1
     4    29    30    1
     5    29    31    1
     6    31    32    1
     7    32    20    1
     8    20    21   ar
     9    21    22   ar
    10    22    23   ar
    11    23    24   ar
    12    24    25   ar
    13    25     1    1
    14     1     3    1
    15     3     4   ar
    16     4     5   ar
    17     5     6   ar
    18     6     7   ar
    19     7     8   ar
    20     8     9   ar
    21     9    12    1
    22    12    13   ar
    23    13    14    1
    24    13    15   ar
    25    15    16   ar
    26    16    17   ar
    27    17    18   ar
    28    18    19    1
    29     9    10   ar
    30    10    11   ar
    31    32    33    1
    32    33    27    1
    33    25    20   ar
    34    11     3   ar
    35    11     6   ar
    36    18    12   ar
    37    30    34    1
    38    30    35    1
    39     1     2    1
@<TRIPOS>MOLECULE
*****
 35 39 0 0 0
SMALL
GASTEIGER

@<TRIPOS>ATOM
      1 N         142.3790  142.1446  160.5010 N.pl3   1  UNL1       -0.2803
      2 H         142.1665  141.2487  160.1525 H       1  UNL1        0.1551
      3 C         143.1487  142.2886  161.7804 C.ar    1  UNL1        0.2220
      4 N         144.4338  143.0421  161.9561 N.ar    1  UNL1       -0.2104
      5 C         144.8477  142.9236  163.3930 C.ar    1  UNL1        0.1210
      6 C         143.8185  142.0969  164.1053 C.ar    1  UNL1        0.1049
      7 C         143.7018  141.6508  165.5326 C.ar    1  UNL1        0.0224
      8 C         142.5351  140.8122  165.9633 C.ar    1  UNL1        0.0226
      9 C         141.4850  140.4198  164.9666 C.ar    1  UNL1        0.1057
     10 N         141.6017  140.8660  163.5393 N.ar    1  UNL1       -0.1626
     11 N         142.7684  141.7045  163.1086 N.ar    1  UNL1       -0.1984
     12 C         140.3182  139.5813  165.3973 C.ar    1  UNL1        0.0742
     13 C         139.3533  140.1067  166.4184 C.ar    1  UNL1        0.1438
     14 F         139.5551  141.4708  167.0089 F       1  UNL1       -0.2040
     15 C         138.1865  139.2682  166.8492 C.ar    1  UNL1        0.0298
     16 C         137.9847  137.9041  166.2587 C.ar    1  UNL1        0.0046
     17 C         138.9496  137.3787  165.2375 C.ar    1  UNL1        0.0298
     18 C         140.1164  138.2172  164.8068 C.ar    1  UNL1        0.1438
     19 F         141.0814  137.6918  163.7856 F       1  UNL1       -0.2040
     20 C         140.6777  144.0785  160.1603 C.ar    1  UNL1        0.0646
     21 C         140.2317  145.2995  159.4119 C.ar    1  UNL1        0.0364
     22 C         141.0409  145.8078  158.2557 C.ar    1  UNL1        0.1002
     23 N         142.2962  145.0950  157.8479 N.ar    1  UNL1       -0.2409
     24 C         142.7422  143.8740  158.5963 C.ar    1  UNL1        0.1147
     25 C         141.9329  143.3657  159.7525 C.ar    1  UNL1        0.0834
     26 C         139.3901  144.2898  165.1900 C.3     1  UNL1        0.0018
     27 C         139.2246  143.6759  163.8314 C.3     1  UNL1        0.0212
     28 C         138.2500  142.5537  163.6290 C.3     1  UNL1        0.0189
     29 C         138.0846  141.9399  162.2703 C.3     1  UNL1        0.0709
     30 N         137.1100  140.8178  162.0680 N.3     1  UNL1       -0.3208
     31 C         138.8939  142.4481  161.1141 C.3     1  UNL1        0.1062
     32 N         139.8685  143.5702  161.3166 N.pl3   1  UNL1       -0.3051
     33 C         140.0338  144.1841  162.6752 C.3     1  UNL1        0.0909
     34 H         136.6508  140.6026  162.9530 H       1  UNL1        0.1189
     35 H         137.6068  139.9922  161.7331 H       1  UNL1        0.1189
@<TRIPOS>BOND
     1    27    26    1
     2    27    28    1
     3    28    29    1
     4    29    30    1
     5    29    31    1
     6    31    32    1
     7    32    20    1
     8    20    21   ar
     9    21    22   ar
    10    22    23   ar
    11    23    24   ar
    12    24    25   ar
    13    25     1    1
    14     1     3    1
    15     3     4   ar
    16     4     5   ar
    17     5     6   ar
    18     6     7   ar
    19     7     8   ar
    20     8     9   ar
    21     9    12    1
    22    12    13   ar
    23    13    14    1
    24    13    15   ar
    25    15    16   ar
    26    16    17   ar
    27    17    18   ar
    28    18    19    1
    29     9    10   ar
    30    10    11   ar
    31    32    33    1
    32    33    27    1
    33    25    20   ar
    34    11     3   ar
    35    11     6   ar
    36    18    12   ar
    37    30    34    1
    38    30    35    1
    39     1     2    1
