@<TRIPOS>MOLECULE
*****
 20 21 0 0 0
SMALL
GASTEIGER

@<TRIPOS>ATOM
      1 C         141.6150  144.1258  163.5452 C.ar    1  UNL1        0.0282
      2 C         142.8730  144.8285  163.1287 C.ar    1  UNL1        0.0010
      3 C         144.1972  144.1362  163.2594 C.ar    1  UNL1        0.0113
      4 C         144.2634  142.7412  163.8066 C.ar    1  UNL1        0.0607
      5 CL        145.5877  142.0489  163.9373 Cl      1  UNL1       -0.0821
      6 C         143.0054  142.0385  164.2232 C.ar    1  UNL1        0.0486
      7 C         141.6812  142.7308  164.0925 C.ar    1  UNL1        0.1434
      8 C         140.2907  144.8181  163.4145 C.3     1  UNL1        0.0987
      9 C         138.0980  144.5042  164.7722 C.3     1  UNL1        0.0861
     10 N         139.4679  145.1000  164.6366 N.3     1  UNL1       -0.2925
     11 H         140.0102  144.7767  165.4377 H       1  UNL1        0.1236
     12 O         140.4231  142.0281  164.5090 O.3     1  UNL1       -0.4537
     13 C         140.2184  141.6447  165.9447 C.ar    1  UNL1        0.1461
     14 C         139.6947  140.2821  166.2898 C.ar    1  UNL1        0.0372
     15 C         139.4900  139.8988  167.7255 C.ar    1  UNL1       -0.0003
     16 C         139.8088  140.8781  168.8160 C.ar    1  UNL1       -0.0111
     17 C         139.6041  140.4947  170.2517 C.3     1  UNL1        0.0319
     18 C         140.3325  142.2406  168.4710 C.ar    1  UNL1        0.0567
     19 CL        140.6514  143.2199  169.5615 Cl      1  UNL1       -0.0825
     20 C         140.5373  142.6240  167.0353 C.ar    1  UNL1        0.0486
@<TRIPOS>BOND
     1     9    10    1
     2    10     8    1
     3     8     1    1
     4     1     2   ar
     5     2     3   ar
     6     3     4   ar
     7     4     5    1
     8     4     6   ar
     9     6     7   ar
    10     7    12    1
    11    12    13    1
    12    13    14   ar
    13    14    15   ar
    14    15    16   ar
    15    16    17    1
    16    16    18   ar
    17    18    19    1
    18    18    20   ar
    19     7     1   ar
    20    20    13   ar
    21    10    11    1
@<TRIPOS>MOLECULE
*****
 20 21 0 0 0
SMALL
GASTEIGER

@<TRIPOS>ATOM
      1 C         142.1620  144.0893  163.7935 C.ar    1  UNL1        0.0282
      2 C         143.1069  144.1841  162.6325 C.ar    1  UNL1        0.0010
      3 C         144.3502  143.3452  162.6068 C.ar    1  UNL1        0.0113
      4 C         144.6485  142.4116  163.7422 C.ar    1  UNL1        0.0607
      5 CL        145.8917  141.5727  163.7165 Cl      1  UNL1       -0.0821
      6 C         143.7036  142.3167  164.9033 C.ar    1  UNL1        0.0486
      7 C         142.4603  143.1556  164.9289 C.ar    1  UNL1        0.1434
      8 C         140.9188  144.9282  163.8192 C.3     1  UNL1        0.0987
      9 C         139.7380  146.0246  161.7812 C.3     1  UNL1        0.0861
     10 N         140.7704  146.0785  162.8680 N.3     1  UNL1       -0.2925
     11 H         140.5612  146.9020  163.4323 H       1  UNL1        0.1236
     12 O         141.5154  143.0607  166.0901 O.3     1  UNL1       -0.4537
     13 C         140.6011  141.8786  166.2183 C.ar    1  UNL1        0.1461
     14 C         140.4400  141.1953  167.5440 C.ar    1  UNL1        0.0372
     15 C         139.5257  140.0132  167.6722 C.ar    1  UNL1       -0.0003
     16 C         138.7724  139.5142  166.4749 C.ar    1  UNL1       -0.0111
     17 C         137.8581  138.3321  166.6031 C.3     1  UNL1        0.0319
     18 C         138.9335  140.1974  165.1493 C.ar    1  UNL1        0.0567
     19 CL        138.1802  139.6984  163.9519 Cl      1  UNL1       -0.0825
     20 C         139.8478  141.3796  165.0210 C.ar    1  UNL1        0.0486
@<TRIPOS>BOND
     1     9    10    1
     2    10     8    1
     3     8     1    1
     4     1     2   ar
     5     2     3   ar
     6     3     4   ar
     7     4     5    1
     8     4     6   ar
     9     6     7   ar
    10     7    12    1
    11    12    13    1
    12    13    14   ar
    13    14    15   ar
    14    15    16   ar
    15    16    17    1
    16    16    18   ar
    17    18    19    1
    18    18    20   ar
    19     7     1   ar
    20    20    13   ar
    21    10    11    1
@<TRIPOS>MOLECULE
*****
 20 21 0 0 0
SMALL
GASTEIGER

@<TRIPOS>ATOM
      1 C         139.3498  143.8243  164.1085 C.ar    1  UNL1        0.0282
      2 C         139.6542  145.1067  163.3924 C.ar    1  UNL1        0.0010
      3 C         141.0774  145.4936  163.1191 C.ar    1  UNL1        0.0113
      4 C         142.1963  144.5982  163.5620 C.ar    1  UNL1        0.0607
      5 CL        143.6196  144.9851  163.2888 Cl      1  UNL1       -0.0821
      6 C         141.8920  143.3158  164.2782 C.ar    1  UNL1        0.0486
      7 C         140.4687  142.9289  164.5514 C.ar    1  UNL1        0.1434
      8 C         137.9266  143.4374  164.3818 C.3     1  UNL1        0.0987
      9 C         137.3707  141.3025  163.0096 C.3     1  UNL1        0.0861
     10 N         137.5188  141.9948  164.3320 N.3     1  UNL1       -0.2925
     11 H         138.2174  141.4729  164.8610 H       1  UNL1        0.1236
     12 O         140.1644  141.6465  165.2677 O.3     1  UNL1       -0.4537
     13 C         140.3326  141.5603  166.7557 C.ar    1  UNL1        0.1461
     14 C         140.4768  140.2221  167.4179 C.ar    1  UNL1        0.0372
     15 C         140.6450  140.1360  168.9060 C.ar    1  UNL1       -0.0003
     16 C         140.6690  141.3879  169.7318 C.ar    1  UNL1       -0.0111
     17 C         140.8372  141.3018  171.2198 C.3     1  UNL1        0.0319
     18 C         140.5248  142.7261  169.0696 C.ar    1  UNL1        0.0567
     19 CL        140.5488  143.9781  169.8954 Cl      1  UNL1       -0.0825
     20 C         140.3566  142.8123  167.5815 C.ar    1  UNL1        0.0486
@<TRIPOS>BOND
     1     9    10    1
     2    10     8    1
     3     8     1    1
     4     1     2   ar
     5     2     3   ar
     6     3     4   ar
     7     4     5    1
     8     4     6   ar
     9     6     7   ar
    10     7    12    1
    11    12    13    1
    12    13    14   ar
    13    14    15   ar
    14    15    16   ar
    15    16    17    1
    16    16    18   ar
    17    18    19    1
    18    18    20   ar
    19     7     1   ar
    20    20    13   ar
    21    10    11    1
@<TRIPOS>MOLECULE
*****
 20 21 0 0 0
SMALL
GASTEIGER

@<TRIPOS>ATOM
      1 C         138.7660  142.6416  164.0941 C.ar    1  UNL1        0.0282
      2 C         138.5078  144.0849  163.7780 C.ar    1  UNL1        0.0010
      3 C         139.6521  145.0514  163.6974 C.ar    1  UNL1        0.0113
      4 C         141.0546  144.5745  163.9329 C.ar    1  UNL1        0.0607
      5 CL        142.1989  145.5410  163.8523 Cl      1  UNL1       -0.0821
      6 C         141.3128  143.1312  164.2490 C.ar    1  UNL1        0.0486
      7 C         140.1685  142.1647  164.3297 C.ar    1  UNL1        0.1434
      8 C         137.6217  141.6751  164.1748 C.3     1  UNL1        0.0987
      9 C         137.5607  140.5441  161.8366 C.3     1  UNL1        0.0861
     10 N         136.8691  141.2986  162.9331 N.3     1  UNL1       -0.2925
     11 H         136.0781  140.7272  163.2301 H       1  UNL1        0.1236
     12 O         140.4268  140.7213  164.6458 O.3     1  UNL1       -0.4537
     13 C         140.9234  140.3286  166.0056 C.ar    1  UNL1        0.1461
     14 C         142.2818  139.7109  166.1585 C.ar    1  UNL1        0.0372
     15 C         142.7784  139.3182  167.5183 C.ar    1  UNL1       -0.0003
     16 C         141.9166  139.5431  168.7253 C.ar    1  UNL1       -0.0111
     17 C         142.4132  139.1504  170.0851 C.3     1  UNL1        0.0319
     18 C         140.5583  140.1607  168.5725 C.ar    1  UNL1        0.0567
     19 CL        139.6966  140.3856  169.7795 Cl      1  UNL1       -0.0825
     20 C         140.0616  140.5535  167.2126 C.ar    1  UNL1        0.0486
@<TRIPOS>BOND
     1     9    10    1
     2    10     8    1
     3     8     1    1
     4     1     2   ar
     5     2     3   ar
     6     3     4   ar
     7     4     5    1
     8     4     6   ar
     9     6     7   ar
    10     7    12    1
    11    12    13    1
    12    13    14   ar
    13    14    15   ar
    14    15    16   ar
    15    16    17    1
    16    16    18   ar
    17    18    19    1
    18    18    20   ar
    19     7     1   ar
    20    20    13   ar
    21    10    11    1
@<TRIPOS>MOLECULE
*****
 20 21 0 0 0
SMALL
GASTEIGER

@<TRIPOS>ATOM
      1 C         138.1689  139.6320  162.7337 C.ar    1  UNL1        0.0282
      2 C         137.9194  140.6257  161.6381 C.ar    1  UNL1        0.0010
      3 C         137.7743  142.0824  161.9655 C.ar    1  UNL1        0.0113
      4 C         137.8788  142.5453  163.3884 C.ar    1  UNL1        0.0607
      5 CL        137.7338  144.0019  163.7158 Cl      1  UNL1       -0.0821
      6 C         138.1283  141.5516  164.4839 C.ar    1  UNL1        0.0486
      7 C         138.2734  140.0950  164.1566 C.ar    1  UNL1        0.1434
      8 C         138.3139  138.1754  162.4063 C.3     1  UNL1        0.0987
      9 C         140.7323  137.3663  162.9032 C.3     1  UNL1        0.0861
     10 N         139.6304  137.6426  161.9236 N.3     1  UNL1       -0.2925
     11 H         139.4346  136.7635  161.4450 H       1  UNL1        0.1236
     12 O         138.5229  139.1012  165.2522 O.3     1  UNL1       -0.4537
     13 C         139.5351  139.3988  166.3184 C.ar    1  UNL1        0.1461
     14 C         140.9998  139.3359  166.0005 C.ar    1  UNL1        0.0372
     15 C         142.0121  139.6335  167.0667 C.ar    1  UNL1       -0.0003
     16 C         141.5598  139.9939  168.4507 C.ar    1  UNL1       -0.0111
     17 C         142.5720  140.2914  169.5169 C.3     1  UNL1        0.0319
     18 C         140.0952  140.0568  168.7686 C.ar    1  UNL1        0.0567
     19 CL        139.6429  140.4172  170.1526 Cl      1  UNL1       -0.0825
     20 C         139.0829  139.7592  167.7024 C.ar    1  UNL1        0.0486
@<TRIPOS>BOND
     1     9    10    1
     2    10     8    1
     3     8     1    1
     4     1     2   ar
     5     2     3   ar
     6     3     4   ar
     7     4     5    1
     8     4     6   ar
     9     6     7   ar
    10     7    12    1
    11    12    13    1
    12    13    14   ar
    13    14    15   ar
    14    15    16   ar
    15    16    17    1
    16    16    18   ar
    17    18    19    1
    18    18    20   ar
    19     7     1   ar
    20    20    13   ar
    21    10    11    1
@<TRIPOS>MOLECULE
*****
 20 21 0 0 0
SMALL
GASTEIGER

@<TRIPOS>ATOM
      1 C         143.3339  143.5350  164.4658 C.ar    1  UNL1        0.0282
      2 C         143.1953  144.9377  163.9529 C.ar    1  UNL1        0.0010
      3 C         141.8452  145.4652  163.5671 C.ar    1  UNL1        0.0113
      4 C         140.6336  144.5900  163.6943 C.ar    1  UNL1        0.0607
      5 CL        139.2835  145.1175  163.3085 Cl      1  UNL1       -0.0821
      6 C         140.7723  143.1873  164.2072 C.ar    1  UNL1        0.0486
      7 C         142.1224  142.6598  164.5930 C.ar    1  UNL1        0.1434
      8 C         144.6841  143.0074  164.8516 C.3     1  UNL1        0.0987
      9 C         145.3423  141.6854  162.7142 C.3     1  UNL1        0.0861
     10 N         145.2148  141.7615  164.2068 N.3     1  UNL1       -0.2925
     11 H         146.1470  141.6056  164.5903 H       1  UNL1        0.1236
     12 O         142.2610  141.2570  165.1059 O.3     1  UNL1       -0.4537
     13 C         141.0605  140.5299  165.6352 C.ar    1  UNL1        0.1461
     14 C         140.2529  139.6531  164.7246 C.ar    1  UNL1        0.0372
     15 C         139.0524  138.9261  165.2539 C.ar    1  UNL1       -0.0003
     16 C         138.6595  139.0757  166.6938 C.ar    1  UNL1       -0.0111
     17 C         137.4590  138.3487  167.2231 C.3     1  UNL1        0.0319
     18 C         139.4670  139.9524  167.6043 C.ar    1  UNL1        0.0567
     19 CL        139.0741  140.1021  169.0442 Cl      1  UNL1       -0.0825
     20 C         140.6676  140.6796  167.0751 C.ar    1  UNL1        0.0486
@<TRIPOS>BOND
     1     9    10    1
     2    10     8    1
     3     8     1    1
     4     1     2   ar
     5     2     3   ar
     6     3     4   ar
     7     4     5    1
     8     4     6   ar
     9     6     7   ar
    10     7    12    1
    11    12    13    1
    12    13    14   ar
    13    14    15   ar
    14    15    16   ar
    15    16    17    1
    16    16    18   ar
    17    18    19    1
    18    18    20   ar
    19     7     1   ar
    20    20    13   ar
    21    10    11    1
@<TRIPOS>MOLECULE
*****
 20 21 0 0 0
SMALL
GASTEIGER

@<TRIPOS>ATOM
      1 C         139.4608  139.8895  167.8110 C.ar    1  UNL1        0.0282
      2 C         138.1974  139.1236  167.5519 C.ar    1  UNL1        0.0010
      3 C         138.0257  138.3737  166.2642 C.ar    1  UNL1        0.0113
      4 C         139.1174  138.3897  165.2356 C.ar    1  UNL1        0.0607
      5 CL        138.9456  137.6398  163.9479 Cl      1  UNL1       -0.0821
      6 C         140.3807  139.1556  165.4948 C.ar    1  UNL1        0.0486
      7 C         140.5525  139.9055  166.7825 C.ar    1  UNL1        0.1434
      8 C         139.6325  140.6394  169.0987 C.3     1  UNL1        0.0987
      9 C         140.0192  142.9072  170.3059 C.3     1  UNL1        0.0861
     10 N         140.1487  142.0477  169.0834 N.3     1  UNL1       -0.2925
     11 H         141.1436  141.9942  168.8651 H       1  UNL1        0.1236
     12 O         141.8160  140.6714  167.0416 O.3     1  UNL1       -0.4537
     13 C         142.2240  141.7799  166.1172 C.ar    1  UNL1        0.1461
     14 C         143.6642  141.9419  165.7302 C.ar    1  UNL1        0.0372
     15 C         144.0723  143.0504  164.8058 C.ar    1  UNL1       -0.0003
     16 C         143.0402  143.9969  164.2682 C.ar    1  UNL1       -0.0111
     17 C         143.4483  145.1054  163.3437 C.3     1  UNL1        0.0319
     18 C         141.6001  143.8349  164.6551 C.ar    1  UNL1        0.0567
     19 CL        140.5680  144.7814  164.1175 Cl      1  UNL1       -0.0825
     20 C         141.1920  142.7264  165.5796 C.ar    1  UNL1        0.0486
@<TRIPOS>BOND
     1     9    10    1
     2    10     8    1
     3     8     1    1
     4     1     2   ar
     5     2     3   ar
     6     3     4   ar
     7     4     5    1
     8     4     6   ar
     9     6     7   ar
    10     7    12    1
    11    12    13    1
    12    13    14   ar
    13    14    15   ar
    14    15    16   ar
    15    16    17    1
    16    16    18   ar
    17    18    19    1
    18    18    20   ar
    19     7     1   ar
    20    20    13   ar
    21    10    11    1
@<TRIPOS>MOLECULE
*****
 20 21 0 0 0
SMALL
GASTEIGER

@<TRIPOS>ATOM
      1 C         140.5594  140.4404  167.0999 C.ar    1  UNL1        0.0282
      2 C         139.6889  139.9066  168.1986 C.ar    1  UNL1        0.0010
      3 C         139.4097  140.7467  169.4095 C.ar    1  UNL1        0.0113
      4 C         140.0011  142.1206  169.5217 C.ar    1  UNL1        0.0607
      5 CL        139.7219  142.9607  170.7326 Cl      1  UNL1       -0.0821
      6 C         140.8716  142.6544  168.4230 C.ar    1  UNL1        0.0486
      7 C         141.1508  141.8143  167.2122 C.ar    1  UNL1        0.1434
      8 C         140.8386  139.6003  165.8890 C.3     1  UNL1        0.0987
      9 C         143.2486  138.6952  166.2397 C.3     1  UNL1        0.0861
     10 N         142.2471  139.4326  165.4011 N.3     1  UNL1       -0.2925
     11 H         142.1929  138.9425  164.5082 H       1  UNL1        0.1236
     12 O         142.0214  142.3482  166.1134 O.3     1  UNL1       -0.4537
     13 C         141.4445  143.2702  165.0804 C.ar    1  UNL1        0.1461
     14 C         142.3534  144.1175  164.2401 C.ar    1  UNL1        0.0372
     15 C         141.7766  145.0395  163.2071 C.ar    1  UNL1       -0.0003
     16 C         140.2909  145.1142  163.0144 C.ar    1  UNL1       -0.0111
     17 C         139.7140  146.0362  161.9814 C.3     1  UNL1        0.0319
     18 C         139.3820  144.2669  163.8546 C.ar    1  UNL1        0.0567
     19 CL        137.8963  144.3416  163.6618 Cl      1  UNL1       -0.0825
     20 C         139.9589  143.3449  164.8877 C.ar    1  UNL1        0.0486
@<TRIPOS>BOND
     1     9    10    1
     2    10     8    1
     3     8     1    1
     4     1     2   ar
     5     2     3   ar
     6     3     4   ar
     7     4     5    1
     8     4     6   ar
     9     6     7   ar
    10     7    12    1
    11    12    13    1
    12    13    14   ar
    13    14    15   ar
    14    15    16   ar
    15    16    17    1
    16    16    18   ar
    17    18    19    1
    18    18    20   ar
    19     7     1   ar
    20    20    13   ar
    21    10    11    1
@<TRIPOS>MOLECULE
*****
 20 21 0 0 0
SMALL
GASTEIGER

@<TRIPOS>ATOM
      1 C         143.0361  143.9983  163.8198 C.ar    1  UNL1        0.0282
      2 C         144.4017  143.7830  163.2378 C.ar    1  UNL1        0.0010
      3 C         145.0334  142.4235  163.2898 C.ar    1  UNL1        0.0113
      4 C         144.2995  141.2793  163.9239 C.ar    1  UNL1        0.0607
      5 CL        144.9312  139.9198  163.9759 Cl      1  UNL1       -0.0821
      6 C         142.9339  141.4946  164.5059 C.ar    1  UNL1        0.0486
      7 C         142.3022  142.8541  164.4539 C.ar    1  UNL1        0.1434
      8 C         142.4044  145.3578  163.7678 C.3     1  UNL1        0.0987
      9 C         140.3347  145.4353  162.1993 C.3     1  UNL1        0.0861
     10 N         140.9223  145.4894  163.5783 N.3     1  UNL1       -0.2925
     11 H         140.4891  144.7362  164.1127 H       1  UNL1        0.1236
     12 O         140.9365  143.0693  165.0359 O.3     1  UNL1       -0.4537
     13 C         140.1338  141.8977  165.5186 C.ar    1  UNL1        0.1461
     14 C         139.2522  141.1482  164.5640 C.ar    1  UNL1        0.0372
     15 C         138.4495  139.9767  165.0467 C.ar    1  UNL1       -0.0003
     16 C         138.5283  139.5545  166.4839 C.ar    1  UNL1       -0.0111
     17 C         137.7256  138.3830  166.9665 C.3     1  UNL1        0.0319
     18 C         139.4098  140.3039  167.4384 C.ar    1  UNL1        0.0567
     19 CL        139.4886  139.8818  168.8757 Cl      1  UNL1       -0.0825
     20 C         140.2126  141.4756  166.9558 C.ar    1  UNL1        0.0486
@<TRIPOS>BOND
     1     9    10    1
     2    10     8    1
     3     8     1    1
     4     1     2   ar
     5     2     3   ar
     6     3     4   ar
     7     4     5    1
     8     4     6   ar
     9     6     7   ar
    10     7    12    1
    11    12    13    1
    12    13    14   ar
    13    14    15   ar
    14    15    16   ar
    15    16    17    1
    16    16    18   ar
    17    18    19    1
    18    18    20   ar
    19     7     1   ar
    20    20    13   ar
    21    10    11    1
