@<TRIPOS>MOLECULE
*****
 29 34 0 0 0
SMALL
GASTEIGER

@<TRIPOS>ATOM
      1 C         139.9677  146.3761  161.6764 C.3     1  UNL1        0.1154
      2 N         140.0818  144.8816  161.7369 N.am    1  UNL1       -0.2682
      3 C         140.8157  144.1411  160.6585 C.3     1  UNL1        0.1794
      4 C         140.9297  142.6467  160.7190 C.2     1  UNL1        0.2467
      5 O         141.6636  141.9062  159.6407 O.2     1  UNL1       -0.2730
      6 N         140.3098  141.8927  161.8580 N.am    1  UNL1       -0.2638
      7 C         139.5759  142.6332  162.9365 C.3     1  UNL1        0.1569
      8 C         138.9559  141.8793  164.0754 C.3     1  UNL1        0.0569
      9 C         139.0700  140.3848  164.1360 C.2     1  UNL1       -0.0034
     10 C         139.8039  139.6444  163.0576 C.2     1  UNL1        0.0770
     11 N         139.7529  138.1810  163.3830 N.2     1  UNL1       -0.2520
     12 C         138.9874  138.0170  164.6626 C.2     1  UNL1        0.0627
     13 C         138.6203  136.8035  165.4640 C.3     1  UNL1        0.0717
     14 C         137.8310  136.9520  166.7309 C.2     1  UNL1       -0.0198
     15 C         137.4089  138.3141  167.1963 C.2     1  UNL1       -0.0042
     16 C         137.7761  139.5276  166.3948 C.2     1  UNL1        0.0006
     17 C         138.5654  139.3791  165.1279 C.2     1  UNL1        0.0112
     18 C         140.4238  140.3983  161.9186 C.3     1  UNL1        0.1382
     19 C         139.4618  144.1277  162.8759 C.2     1  UNL1        0.2445
     20 O         138.7279  144.8682  163.9543 O.2     1  UNL1       -0.2731
     21 C         141.1578  139.6578  160.8402 C.ar    1  UNL1        0.0046
     22 C         142.6352  139.4278  160.9604 C.ar    1  UNL1        0.0010
     23 C         143.3692  138.6874  159.8820 C.ar    1  UNL1        0.0399
     24 C         142.6258  138.1769  158.6834 C.ar    1  UNL1        0.1764
     25 C         141.1484  138.4069  158.5631 C.ar    1  UNL1        0.1762
     26 C         140.4144  139.1474  159.6416 C.ar    1  UNL1        0.0379
     27 O         140.6867  137.7911  157.2756 O.3     1  UNL1       -0.4346
     28 C         141.8787  137.1805  156.6001 C.3     1  UNL1        0.4294
     29 O         143.0772  137.4190  157.4702 O.3     1  UNL1       -0.4346
@<TRIPOS>BOND
     1     1     2    1
     2     2     3    1
     3     3     4    1
     4     4     5    2
     5     4     6   am
     6     6     7    1
     7     7     8    1
     8     8     9    1
     9     9    10    2
    10    10    11    1
    11    11    12    2
    12    12    13    1
    13    13    14    1
    14    14    15    2
    15    15    16    1
    16    16    17    2
    17    10    18    1
    18    18    21    1
    19    21    22   ar
    20    22    23   ar
    21    23    24   ar
    22    24    25   ar
    23    25    26   ar
    24    25    27    1
    25    27    28    1
    26    28    29    1
    27     7    19    1
    28    19    20    2
    29    19     2   am
    30    18     6    1
    31    26    21   ar
    32    17     9    1
    33    29    24    1
    34    17    12    1
@<TRIPOS>MOLECULE
*****
 29 34 0 0 0
SMALL
GASTEIGER

@<TRIPOS>ATOM
      1 C         140.3782  145.8436  157.7361 C.3     1  UNL1        0.1154
      2 N         140.3517  144.3975  158.1338 N.am    1  UNL1       -0.2682
      3 C         140.7142  143.3383  157.1356 C.3     1  UNL1        0.1794
      4 C         140.6877  141.8923  157.5334 C.2     1  UNL1        0.2467
      5 O         141.0502  140.8330  156.5352 O.2     1  UNL1       -0.2730
      6 N         140.2986  141.5055  158.9295 N.am    1  UNL1       -0.2638
      7 C         139.9361  142.5647  159.9277 C.3     1  UNL1        0.1569
      8 C         139.5470  142.1779  161.3238 C.3     1  UNL1        0.0569
      9 C         139.5204  140.7319  161.7216 C.2     1  UNL1       -0.0034
     10 C         139.8830  139.6726  160.7233 C.2     1  UNL1        0.0770
     11 N         139.7668  138.3389  161.3999 N.2     1  UNL1       -0.2520
     12 C         139.3324  138.5739  162.8163 C.2     1  UNL1        0.0627
     13 C         139.0559  137.6322  163.9506 C.3     1  UNL1        0.0717
     14 C         138.6271  138.1695  165.2838 C.2     1  UNL1       -0.0198
     15 C         138.4748  139.6485  165.4826 C.2     1  UNL1       -0.0042
     16 C         138.7514  140.5901  164.3483 C.2     1  UNL1        0.0006
     17 C         139.1802  140.0528  163.0151 C.2     1  UNL1        0.0112
     18 C         140.2721  140.0594  159.3273 C.3     1  UNL1        0.1382
     19 C         139.9626  144.0108  159.5299 C.2     1  UNL1        0.2445
     20 O         139.6000  145.0700  160.5282 O.2     1  UNL1       -0.2731
     21 C         140.6346  139.0002  158.3290 C.ar    1  UNL1        0.0046
     22 C         139.5718  138.3888  157.4647 C.ar    1  UNL1        0.0010
     23 C         139.9343  137.3296  156.4665 C.ar    1  UNL1        0.0399
     24 C         141.3596  136.8817  156.3324 C.ar    1  UNL1        0.1764
     25 C         142.4223  137.4931  157.1965 C.ar    1  UNL1        0.1762
     26 C         142.0598  138.5523  158.1949 C.ar    1  UNL1        0.0379
     27 O         143.7324  136.8544  156.8418 O.3     1  UNL1       -0.4346
     28 C         143.4794  135.8484  155.7583 C.3     1  UNL1        0.4294
     29 O         142.0128  135.8652  155.4435 O.3     1  UNL1       -0.4346
@<TRIPOS>BOND
     1     1     2    1
     2     2     3    1
     3     3     4    1
     4     4     5    2
     5     4     6   am
     6     6     7    1
     7     7     8    1
     8     8     9    1
     9     9    10    2
    10    10    11    1
    11    11    12    2
    12    12    13    1
    13    13    14    1
    14    14    15    2
    15    15    16    1
    16    16    17    2
    17    10    18    1
    18    18    21    1
    19    21    22   ar
    20    22    23   ar
    21    23    24   ar
    22    24    25   ar
    23    25    26   ar
    24    25    27    1
    25    27    28    1
    26    28    29    1
    27     7    19    1
    28    19    20    2
    29    19     2   am
    30    18     6    1
    31    26    21   ar
    32    17     9    1
    33    29    24    1
    34    17    12    1
@<TRIPOS>MOLECULE
*****
 29 34 0 0 0
SMALL
GASTEIGER

@<TRIPOS>ATOM
      1 C         145.4697  141.8164  156.9205 C.3     1  UNL1        0.1154
      2 N         144.0500  142.0261  157.3574 N.am    1  UNL1       -0.2682
      3 C         142.9317  141.8801  156.3685 C.3     1  UNL1        0.1794
      4 C         141.5121  142.0897  156.8053 C.2     1  UNL1        0.2467
      5 O         140.3937  141.9438  155.8165 O.2     1  UNL1       -0.2730
      6 N         141.2109  142.4454  158.2311 N.am    1  UNL1       -0.2638
      7 C         142.3293  142.5913  159.2200 C.3     1  UNL1        0.1569
      8 C         142.0281  142.9470  160.6458 C.3     1  UNL1        0.0569
      9 C         140.6085  143.1566  161.0827 C.2     1  UNL1       -0.0034
     10 C         139.4902  143.0106  160.0938 C.2     1  UNL1        0.0770
     11 N         138.1998  143.2759  160.8110 N.2     1  UNL1       -0.2520
     12 C         138.5206  143.5858  162.2432 C.2     1  UNL1        0.0627
     13 C         137.6494  143.9257  163.4160 C.3     1  UNL1        0.0717
     14 C         138.2671  144.1917  164.7568 C.2     1  UNL1       -0.0198
     15 C         139.7558  144.1180  164.9247 C.2     1  UNL1       -0.0042
     16 C         140.6269  143.7782  163.7518 C.2     1  UNL1        0.0006
     17 C         140.0093  143.5121  162.4111 C.2     1  UNL1        0.0112
     18 C         139.7914  142.6550  158.6680 C.3     1  UNL1        0.1382
     19 C         143.7489  142.3817  158.7832 C.2     1  UNL1        0.2445
     20 O         144.8673  142.5277  159.7721 O.2     1  UNL1       -0.2731
     21 C         138.6730  142.5090  157.6791 C.ar    1  UNL1        0.0046
     22 C         138.3189  143.6511  156.7733 C.ar    1  UNL1        0.0010
     23 C         137.2006  143.5052  155.7844 C.ar    1  UNL1        0.0399
     24 C         136.4363  142.2172  155.7012 C.ar    1  UNL1        0.1764
     25 C         136.7903  141.0752  156.6070 C.ar    1  UNL1        0.1762
     26 C         137.9087  141.2211  157.5960 C.ar    1  UNL1        0.0379
     27 O         135.8659  139.9349  156.2982 O.3     1  UNL1       -0.4346
     28 C         134.9406  140.3722  155.2016 C.3     1  UNL1        0.4294
     29 O         135.2931  141.7828  154.8327 O.3     1  UNL1       -0.4346
@<TRIPOS>BOND
     1     1     2    1
     2     2     3    1
     3     3     4    1
     4     4     5    2
     5     4     6   am
     6     6     7    1
     7     7     8    1
     8     8     9    1
     9     9    10    2
    10    10    11    1
    11    11    12    2
    12    12    13    1
    13    13    14    1
    14    14    15    2
    15    15    16    1
    16    16    17    2
    17    10    18    1
    18    18    21    1
    19    21    22   ar
    20    22    23   ar
    21    23    24   ar
    22    24    25   ar
    23    25    26   ar
    24    25    27    1
    25    27    28    1
    26    28    29    1
    27     7    19    1
    28    19    20    2
    29    19     2   am
    30    18     6    1
    31    26    21   ar
    32    17     9    1
    33    29    24    1
    34    17    12    1
@<TRIPOS>MOLECULE
*****
 29 34 0 0 0
SMALL
GASTEIGER

@<TRIPOS>ATOM
      1 C         145.1978  142.3385  163.5819 C.3     1  UNL1        0.1154
      2 N         144.4711  142.0664  162.2981 N.am    1  UNL1       -0.2682
      3 C         144.4806  140.6871  161.7087 C.3     1  UNL1        0.1794
      4 C         143.7539  140.4150  160.4250 C.2     1  UNL1        0.2467
      5 O         143.7634  139.0358  159.8356 O.2     1  UNL1       -0.2730
      6 N         143.0177  141.5223  159.7307 N.am    1  UNL1       -0.2638
      7 C         143.0082  142.9016  160.3201 C.3     1  UNL1        0.1569
      8 C         142.2720  144.0088  159.6258 C.3     1  UNL1        0.0569
      9 C         141.5453  143.7368  158.3421 C.2     1  UNL1       -0.0034
     10 C         141.5548  142.3574  157.7527 C.2     1  UNL1        0.0770
     11 N         140.7545  142.3898  156.4845 N.2     1  UNL1       -0.2520
     12 C         140.2504  143.7891  156.2901 C.2     1  UNL1        0.0627
     13 C         139.4094  144.4128  155.2160 C.3     1  UNL1        0.0717
     14 C         139.0572  145.8690  155.2899 C.2     1  UNL1       -0.0198
     15 C         139.5460  146.7014  156.4380 C.2     1  UNL1       -0.0042
     16 C         140.3869  146.0778  157.5121 C.2     1  UNL1        0.0006
     17 C         140.7391  144.6216  157.4382 C.2     1  UNL1        0.0112
     18 C         142.2910  141.2502  158.4470 C.3     1  UNL1        0.1382
     19 C         143.7349  143.1737  161.6039 C.2     1  UNL1        0.2445
     20 O         143.7254  144.5530  162.1933 O.2     1  UNL1       -0.2731
     21 C         142.3006  139.8709  157.8577 C.ar    1  UNL1        0.0046
     22 C         141.1411  138.9479  158.0900 C.ar    1  UNL1        0.0010
     23 C         141.1505  137.5686  157.5007 C.ar    1  UNL1        0.0399
     24 C         142.3195  137.1122  156.6789 C.ar    1  UNL1        0.1764
     25 C         143.4789  138.0351  156.4466 C.ar    1  UNL1        0.1762
     26 C         143.4694  139.4145  157.0359 C.ar    1  UNL1        0.0379
     27 O         144.4843  137.3123  155.5999 O.3     1  UNL1       -0.4346
     28 C         143.9462  135.9426  155.3090 C.3     1  UNL1        0.4294
     29 O         142.6083  135.8190  155.9759 O.3     1  UNL1       -0.4346
@<TRIPOS>BOND
     1     1     2    1
     2     2     3    1
     3     3     4    1
     4     4     5    2
     5     4     6   am
     6     6     7    1
     7     7     8    1
     8     8     9    1
     9     9    10    2
    10    10    11    1
    11    11    12    2
    12    12    13    1
    13    13    14    1
    14    14    15    2
    15    15    16    1
    16    16    17    2
    17    10    18    1
    18    18    21    1
    19    21    22   ar
    20    22    23   ar
    21    23    24   ar
    22    24    25   ar
    23    25    26   ar
    24    25    27    1
    25    27    28    1
    26    28    29    1
    27     7    19    1
    28    19    20    2
    29    19     2   am
    30    18     6    1
    31    26    21   ar
    32    17     9    1
    33    29    24    1
    34    17    12    1
@<TRIPOS>MOLECULE
*****
 29 34 0 0 0
SMALL
GASTEIGER

@<TRIPOS>ATOM
      1 C         142.0274  143.5051  164.2255 C.3     1  UNL1        0.1154
      2 N         142.1312  143.4441  162.7303 N.am    1  UNL1       -0.2682
      3 C         142.9585  142.3758  162.0789 C.3     1  UNL1        0.1794
      4 C         143.0624  142.3148  160.5838 C.2     1  UNL1        0.2467
      5 O         143.8896  141.2466  159.9324 O.2     1  UNL1       -0.2730
      6 N         142.3388  143.3221  159.7400 N.am    1  UNL1       -0.2638
      7 C         141.5115  144.3903  160.3914 C.3     1  UNL1        0.1569
      8 C         140.7880  145.3976  159.5476 C.3     1  UNL1        0.0569
      9 C         140.8918  145.3366  158.0524 C.2     1  UNL1       -0.0034
     10 C         141.7192  144.2683  157.4011 C.2     1  UNL1        0.0770
     11 N         141.6345  144.4578  155.9155 N.2     1  UNL1       -0.2520
     12 C         140.7549  145.6432  155.6487 C.2     1  UNL1        0.0627
     13 C         140.3126  146.2982  154.3739 C.3     1  UNL1        0.0717
     14 C         139.4113  147.4963  154.4197 C.2     1  UNL1       -0.0198
     15 C         138.9523  148.0394  155.7404 C.2     1  UNL1       -0.0042
     16 C         139.3946  147.3844  157.0153 C.2     1  UNL1        0.0006
     17 C         140.2959  146.1863  156.9695 C.2     1  UNL1        0.0112
     18 C         142.4427  143.2610  158.2449 C.3     1  UNL1        0.1382
     19 C         141.4077  144.4514  161.8866 C.2     1  UNL1        0.2445
     20 O         140.5803  145.5197  162.5380 O.2     1  UNL1       -0.2731
     21 C         143.2700  142.1928  157.5935 C.ar    1  UNL1        0.0046
     22 C         144.7409  142.4039  157.3883 C.ar    1  UNL1        0.0010
     23 C         145.5683  141.3357  156.7370 C.ar    1  UNL1        0.0399
     24 C         144.9248  140.0563  156.2908 C.ar    1  UNL1        0.1764
     25 C         143.4540  139.8451  156.4960 C.ar    1  UNL1        0.1762
     26 C         142.6266  140.9134  157.1474 C.ar    1  UNL1        0.0379
     27 O         143.1005  138.4908  155.9567 O.3     1  UNL1       -0.4346
     28 C         144.3528  137.8649  155.4183 C.3     1  UNL1        0.4294
     29 O         145.4803  138.8324  155.6248 O.3     1  UNL1       -0.4346
@<TRIPOS>BOND
     1     1     2    1
     2     2     3    1
     3     3     4    1
     4     4     5    2
     5     4     6   am
     6     6     7    1
     7     7     8    1
     8     8     9    1
     9     9    10    2
    10    10    11    1
    11    11    12    2
    12    12    13    1
    13    13    14    1
    14    14    15    2
    15    15    16    1
    16    16    17    2
    17    10    18    1
    18    18    21    1
    19    21    22   ar
    20    22    23   ar
    21    23    24   ar
    22    24    25   ar
    23    25    26   ar
    24    25    27    1
    25    27    28    1
    26    28    29    1
    27     7    19    1
    28    19    20    2
    29    19     2   am
    30    18     6    1
    31    26    21   ar
    32    17     9    1
    33    29    24    1
    34    17    12    1
@<TRIPOS>MOLECULE
*****
 29 34 0 0 0
SMALL
GASTEIGER

@<TRIPOS>ATOM
      1 C         142.6470  137.2635  157.8595 C.3     1  UNL1        0.1154
      2 N         142.2265  138.6494  158.2501 N.am    1  UNL1       -0.2682
      3 C         142.1882  139.7397  157.2207 C.3     1  UNL1        0.1794
      4 C         141.7677  141.1256  157.6114 C.2     1  UNL1        0.2467
      5 O         141.7294  142.2159  156.5820 O.2     1  UNL1       -0.2730
      6 N         141.3855  141.4211  159.0315 N.am    1  UNL1       -0.2638
      7 C         141.4238  140.3308  160.0609 C.3     1  UNL1        0.1569
      8 C         141.0416  140.6263  161.4810 C.3     1  UNL1        0.0569
      9 C         140.6211  142.0121  161.8716 C.2     1  UNL1       -0.0034
     10 C         140.5828  143.1024  160.8422 C.2     1  UNL1        0.0770
     11 N         140.1302  144.3625  161.5184 N.2     1  UNL1       -0.2520
     12 C         139.8888  144.0510  162.9657 C.2     1  UNL1        0.0627
     13 C         139.4320  144.9025  164.1130 C.3     1  UNL1        0.0717
     14 C         139.2785  144.3012  165.4786 C.2     1  UNL1       -0.0198
     15 C         139.5819  142.8485  165.6969 C.2     1  UNL1       -0.0042
     16 C         140.0387  141.9971  164.5496 C.2     1  UNL1        0.0006
     17 C         140.1922  142.5984  163.1840 C.2     1  UNL1        0.0112
     18 C         140.9650  142.8069  159.4221 C.3     1  UNL1        0.1382
     19 C         141.8443  138.9448  159.6702 C.2     1  UNL1        0.2445
     20 O         141.8826  137.8545  160.6997 O.2     1  UNL1       -0.2731
     21 C         140.9267  143.8972  158.3927 C.ar    1  UNL1        0.0046
     22 C         142.1394  144.7478  158.1555 C.ar    1  UNL1        0.0010
     23 C         142.1011  145.8381  157.1262 C.ar    1  UNL1        0.0399
     24 C         140.8502  146.0779  156.3339 C.ar    1  UNL1        0.1764
     25 C         139.6376  145.2274  156.5710 C.ar    1  UNL1        0.1762
     26 C         139.6759  144.1370  157.6004 C.ar    1  UNL1        0.0379
     27 O         138.5550  145.6950  155.6439 O.3     1  UNL1       -0.4346
     28 C         139.0985  146.8345  154.8339 C.3     1  UNL1        0.4294
     29 O         140.5171  147.0711  155.2603 O.3     1  UNL1       -0.4346
@<TRIPOS>BOND
     1     1     2    1
     2     2     3    1
     3     3     4    1
     4     4     5    2
     5     4     6   am
     6     6     7    1
     7     7     8    1
     8     8     9    1
     9     9    10    2
    10    10    11    1
    11    11    12    2
    12    12    13    1
    13    13    14    1
    14    14    15    2
    15    15    16    1
    16    16    17    2
    17    10    18    1
    18    18    21    1
    19    21    22   ar
    20    22    23   ar
    21    23    24   ar
    22    24    25   ar
    23    25    26   ar
    24    25    27    1
    25    27    28    1
    26    28    29    1
    27     7    19    1
    28    19    20    2
    29    19     2   am
    30    18     6    1
    31    26    21   ar
    32    17     9    1
    33    29    24    1
    34    17    12    1
@<TRIPOS>MOLECULE
*****
 29 34 0 0 0
SMALL
GASTEIGER

@<TRIPOS>ATOM
      1 C         136.9363  141.5060  155.9693 C.3     1  UNL1        0.1154
      2 N         138.0756  140.6711  156.4744 N.am    1  UNL1       -0.2682
      3 C         138.8103  141.0781  157.7172 C.3     1  UNL1        0.1794
      4 C         139.9495  140.2432  158.2223 C.2     1  UNL1        0.2467
      5 O         140.6842  140.6502  159.4651 O.2     1  UNL1       -0.2730
      6 N         140.3540  139.0013  157.4847 N.am    1  UNL1       -0.2638
      7 C         139.6192  138.5943  156.2419 C.3     1  UNL1        0.1569
      8 C         140.0237  137.3524  155.5042 C.3     1  UNL1        0.0569
      9 C         141.1629  136.5176  156.0093 C.2     1  UNL1       -0.0034
     10 C         141.8976  136.9246  157.2521 C.2     1  UNL1        0.0770
     11 N         142.9723  135.9100  157.5085 N.2     1  UNL1       -0.2520
     12 C         142.9017  134.8759  156.4241 C.2     1  UNL1        0.0627
     13 C         143.7113  133.6409  156.1607 C.3     1  UNL1        0.0717
     14 C         143.4026  132.7815  154.9708 C.2     1  UNL1       -0.0198
     15 C         142.2843  133.1570  154.0443 C.2     1  UNL1       -0.0042
     16 C         141.4747  134.3920  154.3077 C.2     1  UNL1        0.0006
     17 C         141.7835  135.2514  155.4976 C.2     1  UNL1        0.0112
     18 C         141.4932  138.1665  157.9898 C.3     1  UNL1        0.1382
     19 C         138.4800  139.4293  155.7367 C.2     1  UNL1        0.2445
     20 O         137.7453  139.0223  154.4939 O.2     1  UNL1       -0.2731
     21 C         142.2279  138.5735  159.2326 C.ar    1  UNL1        0.0046
     22 C         143.3657  139.5472  159.1463 C.ar    1  UNL1        0.0010
     23 C         144.1004  139.9542  160.3890 C.ar    1  UNL1        0.0399
     24 C         143.6974  139.3876  161.7181 C.ar    1  UNL1        0.1764
     25 C         142.5597  138.4139  161.8044 C.ar    1  UNL1        0.1762
     26 C         141.8249  138.0068  160.5616 C.ar    1  UNL1        0.0379
     27 O         142.3903  138.0253  163.2433 O.3     1  UNL1       -0.4346
     28 C         143.4233  138.7589  164.0463 C.3     1  UNL1        0.4294
     29 O         144.2312  139.6008  163.1036 O.3     1  UNL1       -0.4346
@<TRIPOS>BOND
     1     1     2    1
     2     2     3    1
     3     3     4    1
     4     4     5    2
     5     4     6   am
     6     6     7    1
     7     7     8    1
     8     8     9    1
     9     9    10    2
    10    10    11    1
    11    11    12    2
    12    12    13    1
    13    13    14    1
    14    14    15    2
    15    15    16    1
    16    16    17    2
    17    10    18    1
    18    18    21    1
    19    21    22   ar
    20    22    23   ar
    21    23    24   ar
    22    24    25   ar
    23    25    26   ar
    24    25    27    1
    25    27    28    1
    26    28    29    1
    27     7    19    1
    28    19    20    2
    29    19     2   am
    30    18     6    1
    31    26    21   ar
    32    17     9    1
    33    29    24    1
    34    17    12    1
@<TRIPOS>MOLECULE
*****
 29 34 0 0 0
SMALL
GASTEIGER

@<TRIPOS>ATOM
      1 C         139.7059  146.3049  161.6945 C.3     1  UNL1        0.1154
      2 N         140.3737  144.9654  161.5938 N.am    1  UNL1       -0.2682
      3 C         141.0754  144.3857  162.7861 C.3     1  UNL1        0.1794
      4 C         141.7431  143.0463  162.6854 C.2     1  UNL1        0.2467
      5 O         142.4449  142.4666  163.8776 O.2     1  UNL1       -0.2730
      6 N         141.7091  142.2866  161.3925 N.am    1  UNL1       -0.2638
      7 C         141.0074  142.8663  160.2002 C.3     1  UNL1        0.1569
      8 C         140.9734  142.1066  158.9072 C.3     1  UNL1        0.0569
      9 C         141.6411  140.7672  158.8066 C.2     1  UNL1       -0.0034
     10 C         142.3428  140.1875  159.9988 C.2     1  UNL1        0.0770
     11 N         142.9077  138.8558  159.6020 N.2     1  UNL1       -0.2520
     12 C         142.5550  138.6124  158.1645 C.2     1  UNL1        0.0627
     13 C         142.8455  137.4678  157.2397 C.3     1  UNL1        0.0717
     14 C         142.3533  137.5044  155.8233 C.2     1  UNL1       -0.0198
     15 C         141.5705  138.6857  155.3317 C.2     1  UNL1       -0.0042
     16 C         141.2800  139.8304  156.2565 C.2     1  UNL1        0.0006
     17 C         141.7722  139.7938  157.6729 C.2     1  UNL1        0.0112
     18 C         142.3769  140.9472  161.2918 C.3     1  UNL1        0.1382
     19 C         140.3396  144.2058  160.3008 C.2     1  UNL1        0.2445
     20 O         139.6379  144.7854  159.1086 O.2     1  UNL1       -0.2731
     21 C         143.0786  140.3676  162.4841 C.ar    1  UNL1        0.0046
     22 C         144.5387  140.6362  162.6989 C.ar    1  UNL1        0.0010
     23 C         145.2405  140.0566  163.8911 C.ar    1  UNL1        0.0399
     24 C         144.4822  139.2083  164.8686 C.ar    1  UNL1        0.1764
     25 C         143.0222  138.9397  164.6538 C.ar    1  UNL1        0.1762
     26 C         142.3204  139.5193  163.4615 C.ar    1  UNL1        0.0379
     27 O         142.5400  138.0726  165.7788 O.3     1  UNL1       -0.4346
     28 C         143.7020  137.8053  166.6889 C.3     1  UNL1        0.4294
     29 O         144.9024  138.5073  166.1264 O.3     1  UNL1       -0.4346
@<TRIPOS>BOND
     1     1     2    1
     2     2     3    1
     3     3     4    1
     4     4     5    2
     5     4     6   am
     6     6     7    1
     7     7     8    1
     8     8     9    1
     9     9    10    2
    10    10    11    1
    11    11    12    2
    12    12    13    1
    13    13    14    1
    14    14    15    2
    15    15    16    1
    16    16    17    2
    17    10    18    1
    18    18    21    1
    19    21    22   ar
    20    22    23   ar
    21    23    24   ar
    22    24    25   ar
    23    25    26   ar
    24    25    27    1
    25    27    28    1
    26    28    29    1
    27     7    19    1
    28    19    20    2
    29    19     2   am
    30    18     6    1
    31    26    21   ar
    32    17     9    1
    33    29    24    1
    34    17    12    1
@<TRIPOS>MOLECULE
*****
 29 34 0 0 0
SMALL
GASTEIGER

@<TRIPOS>ATOM
      1 C         137.4591  141.2390  163.3172 C.3     1  UNL1        0.1154
      2 N         138.0979  141.1130  161.9658 N.am    1  UNL1       -0.2682
      3 C         138.4818  139.7614  161.4408 C.3     1  UNL1        0.1794
      4 C         139.1205  139.6354  160.0894 C.2     1  UNL1        0.2467
      5 O         139.5044  138.2839  159.5643 O.2     1  UNL1       -0.2730
      6 N         139.3755  140.8612  159.2632 N.am    1  UNL1       -0.2638
      7 C         138.9917  142.2128  159.7883 C.3     1  UNL1        0.1569
      8 C         139.2466  143.4385  158.9621 C.3     1  UNL1        0.0569
      9 C         139.8854  143.3126  157.6107 C.2     1  UNL1       -0.0034
     10 C         140.2692  141.9610  157.0857 C.2     1  UNL1        0.0770
     11 N         140.8786  142.1472  155.7277 N.2     1  UNL1       -0.2520
     12 C         140.8714  143.6139  155.4136 C.2     1  UNL1        0.0627
     13 C         141.3444  144.3867  154.2181 C.3     1  UNL1        0.0717
     14 C         141.2036  145.8797  154.1865 C.2     1  UNL1       -0.0198
     15 C         140.5898  146.5999  155.3503 C.2     1  UNL1       -0.0042
     16 C         140.1168  145.8272  156.5457 C.2     1  UNL1        0.0006
     17 C         140.2575  144.3342  156.5774 C.2     1  UNL1        0.0112
     18 C         140.0143  140.7352  157.9119 C.3     1  UNL1        0.1382
     19 C         138.3529  142.3388  161.1397 C.2     1  UNL1        0.2445
     20 O         137.9690  143.6904  161.6648 O.2     1  UNL1       -0.2731
     21 C         140.3981  139.3836  157.3868 C.ar    1  UNL1        0.0046
     22 C         139.4042  138.5701  156.6118 C.ar    1  UNL1        0.0010
     23 C         139.7879  137.2185  156.0867 C.ar    1  UNL1        0.0399
     24 C         141.1656  136.6803  156.3366 C.ar    1  UNL1        0.1764
     25 C         142.1595  137.4937  157.1115 C.ar    1  UNL1        0.1762
     26 C         141.7757  138.8454  157.6367 C.ar    1  UNL1        0.0379
     27 O         143.4338  136.7074  157.1998 O.3     1  UNL1       -0.4346
     28 C         143.2275  135.4079  156.4795 C.3     1  UNL1        0.4294
     29 O         141.8257  135.3912  155.9460 O.3     1  UNL1       -0.4346
@<TRIPOS>BOND
     1     1     2    1
     2     2     3    1
     3     3     4    1
     4     4     5    2
     5     4     6   am
     6     6     7    1
     7     7     8    1
     8     8     9    1
     9     9    10    2
    10    10    11    1
    11    11    12    2
    12    12    13    1
    13    13    14    1
    14    14    15    2
    15    15    16    1
    16    16    17    2
    17    10    18    1
    18    18    21    1
    19    21    22   ar
    20    22    23   ar
    21    23    24   ar
    22    24    25   ar
    23    25    26   ar
    24    25    27    1
    25    27    28    1
    26    28    29    1
    27     7    19    1
    28    19    20    2
    29    19     2   am
    30    18     6    1
    31    26    21   ar
    32    17     9    1
    33    29    24    1
    34    17    12    1
