@<TRIPOS>MOLECULE
*****
 35 39 0 0 0
SMALL
GASTEIGER

@<TRIPOS>ATOM
      1 N         140.1357  138.6067  162.2261 N.3     1  UNL1       -0.2702
      2 C         140.9842  139.4967  163.0850 C.3     1  UNL1        0.0747
      3 C         140.6271  139.7104  164.5261 C.3     1  UNL1        0.0463
      4 C         139.4213  139.0341  165.1082 C.3     1  UNL1        0.1146
      5 C         138.5728  138.1441  164.2493 C.3     1  UNL1        0.0463
      6 C         138.9300  137.9304  162.8082 C.3     1  UNL1        0.0747
      7 C         140.2699  139.9242  165.9672 C.3     1  UNL1        0.1268
      8 N         139.9127  140.1379  167.4083 N.am    1  UNL1       -0.2380
      9 C         138.7070  139.4616  167.9904 C.2     1  UNL1        0.2607
     10 O         138.3498  139.6754  169.4315 O.2     1  UNL1       -0.2718
     11 C         137.8585  138.5716  167.1315 C.3     1  UNL1        0.2274
     12 O         138.2156  138.3579  165.6903 O.3     1  UNL1       -0.3475
     13 C         140.7613  141.0280  168.2673 C.ar    1  UNL1        0.1575
     14 C         142.1710  140.6329  168.5938 C.ar    1  UNL1        0.0414
     15 C         143.0195  141.5228  169.4527 C.ar    1  UNL1        0.0651
     16 C         142.4584  142.8079  169.9852 C.ar    1  UNL1        0.2766
     17 O         143.3069  143.6980  170.8442 O.2     1  UNL1       -0.2655
     18 N         141.0487  143.2030  169.6587 N.ar    1  UNL1       -0.2134
     19 C         140.4875  144.4882  170.1913 C.3     1  UNL1        0.1571
     20 N         140.2001  142.3131  168.7998 N.ar    1  UNL1       -0.1513
     21 C         140.4928  138.3929  160.7849 C.3     1  UNL1        0.1063
     22 C         139.9242  139.2945  159.7296 C.3     1  UNL1        0.1483
     23 O         139.3336  138.7087  158.4814 O.3     1  UNL1       -0.3786
     24 H         139.0138  139.4233  157.9088 H       1  UNL1        0.2108
     25 C         142.1955  140.9165  158.6295 C.3     1  UNL1        0.0306
     26 C         141.0816  141.5929  159.3725 C.ar    1  UNL1       -0.0238
     27 C         139.9460  140.7819  159.9225 C.ar    1  UNL1        0.0015
     28 C         138.8322  141.4583  160.6654 C.ar    1  UNL1       -0.0020
     29 C         138.8540  142.9456  160.8583 C.ar    1  UNL1        0.0060
     30 C         139.9896  143.7566  160.3083 C.ar    1  UNL1        0.0748
     31 C         141.1034  143.0803  159.5654 C.ar    1  UNL1        0.0233
     32 C         142.0832  144.1333  159.1397 C.3     1  UNL1        0.2352
     33 O         141.5749  145.4605  159.6195 O.3     1  UNL1       -0.4404
     34 C         140.2810  145.2277  160.3417 C.2     1  UNL1        0.3413
     35 O         139.4282  146.2810  160.9846 O.2     1  UNL1       -0.2449
@<TRIPOS>BOND
     1    25    26    1
     2    26    27   ar
     3    27    22    1
     4    22    23    1
     5    22    21    1
     6    21     1    1
     7     1     2    1
     8     2     3    1
     9     3     4    1
    10     4     5    1
    11     5     6    1
    12     4     7    1
    13     7     8    1
    14     8    13    1
    15    13    14   ar
    16    14    15   ar
    17    15    16   ar
    18    16    17    2
    19    16    18   ar
    20    18    19    1
    21    18    20   ar
    22     8     9   am
    23     9    10    2
    24     9    11    1
    25    11    12    1
    26    27    28   ar
    27    28    29   ar
    28    29    30   ar
    29    30    31   ar
    30    31    32    1
    31    32    33    1
    32    33    34    1
    33    34    35    2
    34    31    26   ar
    35     6     1    1
    36    20    13   ar
    37    34    30    1
    38    12     4    1
    39    23    24    1
@<TRIPOS>MOLECULE
*****
 35 39 0 0 0
SMALL
GASTEIGER

@<TRIPOS>ATOM
      1 N         140.4087  138.1990  163.9637 N.3     1  UNL1       -0.2702
      2 C         140.0767  137.6475  162.6089 C.3     1  UNL1        0.0747
      3 C         140.9217  138.0102  161.4239 C.3     1  UNL1        0.0463
      4 C         142.0987  138.9244  161.5936 C.3     1  UNL1        0.1146
      5 C         142.4307  139.4760  162.9484 C.3     1  UNL1        0.0463
      6 C         141.5857  139.1133  164.1334 C.3     1  UNL1        0.0747
      7 C         141.7666  138.3729  160.2387 C.3     1  UNL1        0.1268
      8 N         142.6116  138.7356  159.0537 N.am    1  UNL1       -0.2380
      9 C         143.7886  139.6498  159.2234 C.2     1  UNL1        0.2607
     10 O         144.6336  140.0126  158.0382 O.2     1  UNL1       -0.2718
     11 C         144.1206  140.2014  160.5782 C.3     1  UNL1        0.2274
     12 O         143.2757  139.8387  161.7633 O.3     1  UNL1       -0.3475
     13 C         142.2796  138.1840  157.6988 C.ar    1  UNL1        0.1575
     14 C         141.1290  138.7496  156.9201 C.ar    1  UNL1        0.0414
     15 C         140.7970  138.1982  155.5653 C.ar    1  UNL1        0.0651
     16 C         141.6156  137.0811  154.9891 C.ar    1  UNL1        0.2766
     17 O         141.2836  136.5295  153.6342 O.2     1  UNL1       -0.2655
     18 N         142.7661  136.5155  155.7678 N.ar    1  UNL1       -0.2134
     19 C         143.5847  135.3983  155.1915 C.3     1  UNL1        0.1571
     20 N         143.0982  137.0669  157.1226 N.ar    1  UNL1       -0.1513
     21 C         139.5637  137.8363  165.1489 C.3     1  UNL1        0.1063
     22 C         138.4874  138.7704  165.6166 C.3     1  UNL1        0.1483
     23 O         137.4991  138.3183  166.6505 O.3     1  UNL1       -0.3786
     24 H         136.8762  139.0377  166.8387 H       1  UNL1        0.2108
     25 C         139.8930  141.0411  166.9835 C.3     1  UNL1        0.0306
     26 C         139.1021  141.2920  165.7339 C.ar    1  UNL1       -0.0238
     27 C         138.3993  140.1568  165.0505 C.ar    1  UNL1        0.0015
     28 C         137.6084  140.4077  163.8009 C.ar    1  UNL1       -0.0020
     29 C         137.5203  141.7939  163.2348 C.ar    1  UNL1        0.0060
     30 C         138.2231  142.9292  163.9182 C.ar    1  UNL1        0.0748
     31 C         139.0140  142.6783  165.1678 C.ar    1  UNL1        0.0233
     32 C         139.5959  143.9853  165.6183 C.3     1  UNL1        0.2352
     33 O         139.1646  145.0441  164.6472 O.3     1  UNL1       -0.4404
     34 C         138.3162  144.3914  163.5965 C.2     1  UNL1        0.3413
     35 O         137.6736  145.0799  162.4290 O.2     1  UNL1       -0.2449
@<TRIPOS>BOND
     1    25    26    1
     2    26    27   ar
     3    27    22    1
     4    22    23    1
     5    22    21    1
     6    21     1    1
     7     1     2    1
     8     2     3    1
     9     3     4    1
    10     4     5    1
    11     5     6    1
    12     4     7    1
    13     7     8    1
    14     8    13    1
    15    13    14   ar
    16    14    15   ar
    17    15    16   ar
    18    16    17    2
    19    16    18   ar
    20    18    19    1
    21    18    20   ar
    22     8     9   am
    23     9    10    2
    24     9    11    1
    25    11    12    1
    26    27    28   ar
    27    28    29   ar
    28    29    30   ar
    29    30    31   ar
    30    31    32    1
    31    32    33    1
    32    33    34    1
    33    34    35    2
    34    31    26   ar
    35     6     1    1
    36    20    13   ar
    37    34    30    1
    38    12     4    1
    39    23    24    1
@<TRIPOS>MOLECULE
*****
 35 39 0 0 0
SMALL
GASTEIGER

@<TRIPOS>ATOM
      1 N         142.0696  138.2514  162.4296 N.3     1  UNL1       -0.2702
      2 C         142.5971  139.0028  163.6158 C.3     1  UNL1        0.0747
      3 C         141.7405  139.1772  164.8347 C.3     1  UNL1        0.0463
      4 C         140.3563  138.6002  164.8674 C.3     1  UNL1        0.1146
      5 C         139.8287  137.8488  163.6812 C.3     1  UNL1        0.0463
      6 C         140.6854  137.6744  162.4624 C.3     1  UNL1        0.0747
      7 C         140.8838  139.3517  166.0536 C.3     1  UNL1        0.1268
      8 N         140.0272  139.5261  167.2725 N.am    1  UNL1       -0.2380
      9 C         138.6430  138.9491  167.3052 C.2     1  UNL1        0.2607
     10 O         137.7863  139.1236  168.5241 O.2     1  UNL1       -0.2718
     11 C         138.1154  138.1977  166.1190 C.3     1  UNL1        0.2274
     12 O         138.9721  138.0232  164.9001 O.3     1  UNL1       -0.3475
     13 C         140.5547  140.2776  168.4587 C.ar    1  UNL1        0.1575
     14 C         141.3878  139.5692  169.4853 C.ar    1  UNL1        0.0414
     15 C         141.9154  140.3205  170.6715 C.ar    1  UNL1        0.0651
     16 C         141.6097  141.7803  170.8311 C.ar    1  UNL1        0.2766
     17 O         142.1372  142.5318  172.0173 O.2     1  UNL1       -0.2655
     18 N         140.7766  142.4888  169.8045 N.ar    1  UNL1       -0.2134
     19 C         140.4709  143.9487  169.9641 C.3     1  UNL1        0.1571
     20 N         140.2490  141.7374  168.6183 N.ar    1  UNL1       -0.1513
     21 C         142.9263  138.0769  161.2107 C.3     1  UNL1        0.1063
     22 C         143.1320  139.2253  160.2680 C.3     1  UNL1        0.1483
     23 O         144.0342  139.0681  159.0800 O.3     1  UNL1       -0.3786
     24 H         144.0559  139.8980  158.5784 H       1  UNL1        0.2108
     25 C         144.5508  141.4322  161.7229 C.3     1  UNL1        0.0306
     26 C         143.1449  141.6344  161.2406 C.ar    1  UNL1       -0.0238
     27 C         142.4355  140.5310  160.5132 C.ar    1  UNL1        0.0015
     28 C         141.0296  140.7333  160.0309 C.ar    1  UNL1       -0.0020
     29 C         140.3331  142.0389  160.2761 C.ar    1  UNL1        0.0060
     30 C         141.0425  143.1423  161.0036 C.ar    1  UNL1        0.0748
     31 C         142.4484  142.9401  161.4858 C.ar    1  UNL1        0.0233
     32 C         142.8899  144.2004  162.1689 C.3     1  UNL1        0.2352
     33 O         141.7569  145.1816  162.1089 O.3     1  UNL1       -0.4404
     34 C         140.6151  144.5276  161.3886 C.2     1  UNL1        0.3413
     35 O         139.2804  145.1497  161.1035 O.2     1  UNL1       -0.2449
@<TRIPOS>BOND
     1    25    26    1
     2    26    27   ar
     3    27    22    1
     4    22    23    1
     5    22    21    1
     6    21     1    1
     7     1     2    1
     8     2     3    1
     9     3     4    1
    10     4     5    1
    11     5     6    1
    12     4     7    1
    13     7     8    1
    14     8    13    1
    15    13    14   ar
    16    14    15   ar
    17    15    16   ar
    18    16    17    2
    19    16    18   ar
    20    18    19    1
    21    18    20   ar
    22     8     9   am
    23     9    10    2
    24     9    11    1
    25    11    12    1
    26    27    28   ar
    27    28    29   ar
    28    29    30   ar
    29    30    31   ar
    30    31    32    1
    31    32    33    1
    32    33    34    1
    33    34    35    2
    34    31    26   ar
    35     6     1    1
    36    20    13   ar
    37    34    30    1
    38    12     4    1
    39    23    24    1
@<TRIPOS>MOLECULE
*****
 35 39 0 0 0
SMALL
GASTEIGER

@<TRIPOS>ATOM
      1 N         142.0435  138.6938  164.0529 N.3     1  UNL1       -0.2702
      2 C         141.6707  137.6852  163.0070 C.3     1  UNL1        0.0747
      3 C         142.0087  137.9375  161.5676 C.3     1  UNL1        0.0463
      4 C         142.7195  139.1984  161.1740 C.3     1  UNL1        0.1146
      5 C         143.0923  140.2070  162.2198 C.3     1  UNL1        0.0463
      6 C         142.7543  139.9546  163.6592 C.3     1  UNL1        0.0747
      7 C         142.3466  138.1898  160.1281 C.3     1  UNL1        0.1268
      8 N         142.6846  138.4421  158.6886 N.am    1  UNL1       -0.2380
      9 C         143.3954  139.7030  158.2950 C.2     1  UNL1        0.2607
     10 O         143.7334  139.9553  156.8554 O.2     1  UNL1       -0.2718
     11 C         143.7682  140.7116  159.3408 C.3     1  UNL1        0.2274
     12 O         143.4303  140.4593  160.7803 O.3     1  UNL1       -0.3475
     13 C         142.3118  137.4335  157.6427 C.ar    1  UNL1        0.1575
     14 C         141.0359  137.5912  156.8699 C.ar    1  UNL1        0.0414
     15 C         140.6631  136.5827  155.8240 C.ar    1  UNL1        0.0651
     16 C         141.5661  135.4165  155.5510 C.ar    1  UNL1        0.2766
     17 O         141.1933  134.4079  154.5051 O.2     1  UNL1       -0.2655
     18 N         142.8420  135.2589  156.3238 N.ar    1  UNL1       -0.2134
     19 C         143.7450  134.0927  156.0508 C.3     1  UNL1        0.1571
     20 N         143.2148  136.2674  157.3697 N.ar    1  UNL1       -0.1513
     21 C         141.7055  138.4415  165.4924 C.3     1  UNL1        0.1063
     22 C         142.5804  138.9972  166.5767 C.3     1  UNL1        0.1483
     23 O         143.9654  138.4561  166.7741 O.3     1  UNL1       -0.3786
     24 H         144.3923  138.9212  167.5105 H       1  UNL1        0.2108
     25 C         142.6403  138.6659  169.5578 C.3     1  UNL1        0.0306
     26 C         142.1002  139.9284  168.9542 C.ar    1  UNL1       -0.0238
     27 C         142.0702  140.0941  167.4637 C.ar    1  UNL1        0.0015
     28 C         141.5301  141.3566  166.8601 C.ar    1  UNL1       -0.0020
     29 C         141.0200  142.4535  167.7470 C.ar    1  UNL1        0.0060
     30 C         141.0500  142.2878  169.2375 C.ar    1  UNL1        0.0748
     31 C         141.5901  141.0253  169.8411 C.ar    1  UNL1        0.0233
     32 C         141.4933  141.1465  171.3330 C.3     1  UNL1        0.2352
     33 O         140.8934  142.4839  171.6516 O.3     1  UNL1       -0.4404
     34 C         140.6195  143.1893  170.3564 C.2     1  UNL1        0.3413
     35 O         140.0201  144.5561  170.2065 O.2     1  UNL1       -0.2449
@<TRIPOS>BOND
     1    25    26    1
     2    26    27   ar
     3    27    22    1
     4    22    23    1
     5    22    21    1
     6    21     1    1
     7     1     2    1
     8     2     3    1
     9     3     4    1
    10     4     5    1
    11     5     6    1
    12     4     7    1
    13     7     8    1
    14     8    13    1
    15    13    14   ar
    16    14    15   ar
    17    15    16   ar
    18    16    17    2
    19    16    18   ar
    20    18    19    1
    21    18    20   ar
    22     8     9   am
    23     9    10    2
    24     9    11    1
    25    11    12    1
    26    27    28   ar
    27    28    29   ar
    28    29    30   ar
    29    30    31   ar
    30    31    32    1
    31    32    33    1
    32    33    34    1
    33    34    35    2
    34    31    26   ar
    35     6     1    1
    36    20    13   ar
    37    34    30    1
    38    12     4    1
    39    23    24    1
@<TRIPOS>MOLECULE
*****
 35 39 0 0 0
SMALL
GASTEIGER

@<TRIPOS>ATOM
      1 N         139.3939  137.6937  163.8772 N.3     1  UNL1       -0.2702
      2 C         138.5448  138.0920  162.7066 C.3     1  UNL1        0.0747
      3 C         139.1666  138.2608  161.3520 C.3     1  UNL1        0.0463
      4 C         140.6375  138.0312  161.1681 C.3     1  UNL1        0.1146
      5 C         141.4866  137.6329  162.3387 C.3     1  UNL1        0.0463
      6 C         140.8648  137.4641  163.6932 C.3     1  UNL1        0.0747
      7 C         139.7884  138.4296  159.9974 C.3     1  UNL1        0.1268
      8 N         140.4102  138.5983  158.6428 N.am    1  UNL1       -0.2380
      9 C         141.8811  138.3688  158.4589 C.2     1  UNL1        0.2607
     10 O         142.5029  138.5376  157.1042 O.2     1  UNL1       -0.2718
     11 C         142.7302  137.9705  159.6295 C.3     1  UNL1        0.2274
     12 O         142.1084  137.8017  160.9841 O.3     1  UNL1       -0.3475
     13 C         139.5611  138.9967  157.4721 C.ar    1  UNL1        0.1575
     14 C         139.0212  140.3929  157.3779 C.ar    1  UNL1        0.0414
     15 C         138.1721  140.7913  156.2073 C.ar    1  UNL1        0.0651
     16 C         137.8630  139.7934  155.1309 C.ar    1  UNL1        0.2766
     17 O         137.0139  140.1917  153.9602 O.2     1  UNL1       -0.2655
     18 N         138.4029  138.3971  155.2252 N.ar    1  UNL1       -0.2134
     19 C         138.0938  137.3992  154.1487 C.3     1  UNL1        0.1571
     20 N         139.2520  137.9988  156.3958 N.ar    1  UNL1       -0.1513
     21 C         138.7721  137.5249  165.2318 C.3     1  UNL1        0.1063
     22 C         138.4558  138.7298  166.0672 C.3     1  UNL1        0.1483
     23 O         137.7952  138.5634  167.4036 O.3     1  UNL1       -0.3786
     24 H         137.6626  139.4344  167.8094 H       1  UNL1        0.2108
     25 C         141.1842  139.8703  166.5721 C.3     1  UNL1        0.0306
     26 C         140.1641  140.6714  165.8187 C.ar    1  UNL1       -0.0238
     27 C         138.7999  140.1012  165.5662 C.ar    1  UNL1        0.0015
     28 C         137.7798  140.9023  164.8128 C.ar    1  UNL1       -0.0020
     29 C         138.1239  142.2736  164.3119 C.ar    1  UNL1        0.0060
     30 C         139.4881  142.8438  164.5643 C.ar    1  UNL1        0.0748
     31 C         140.5082  142.0427  165.3177 C.ar    1  UNL1        0.0233
     32 C         141.7615  142.8613  165.4141 C.3     1  UNL1        0.2352
     33 O         141.5160  144.1683  164.7202 O.3     1  UNL1       -0.4404
     34 C         140.1110  144.1575  164.1950 C.2     1  UNL1        0.3413
     35 O         139.4456  145.2658  163.4342 O.2     1  UNL1       -0.2449
@<TRIPOS>BOND
     1    25    26    1
     2    26    27   ar
     3    27    22    1
     4    22    23    1
     5    22    21    1
     6    21     1    1
     7     1     2    1
     8     2     3    1
     9     3     4    1
    10     4     5    1
    11     5     6    1
    12     4     7    1
    13     7     8    1
    14     8    13    1
    15    13    14   ar
    16    14    15   ar
    17    15    16   ar
    18    16    17    2
    19    16    18   ar
    20    18    19    1
    21    18    20   ar
    22     8     9   am
    23     9    10    2
    24     9    11    1
    25    11    12    1
    26    27    28   ar
    27    28    29   ar
    28    29    30   ar
    29    30    31   ar
    30    31    32    1
    31    32    33    1
    32    33    34    1
    33    34    35    2
    34    31    26   ar
    35     6     1    1
    36    20    13   ar
    37    34    30    1
    38    12     4    1
    39    23    24    1
@<TRIPOS>MOLECULE
*****
 35 39 0 0 0
SMALL
GASTEIGER

@<TRIPOS>ATOM
      1 N         144.2747  141.8967  163.4131 N.3     1  UNL1       -0.2702
      2 C         143.8084  141.8122  161.9900 C.3     1  UNL1        0.0747
      3 C         142.7647  142.7638  161.4850 C.3     1  UNL1        0.0463
      4 C         142.1872  143.7999  162.4032 C.3     1  UNL1        0.1146
      5 C         142.6535  143.8844  163.8264 C.3     1  UNL1        0.0463
      6 C         143.6972  142.9328  164.3313 C.3     1  UNL1        0.0747
      7 C         141.7208  143.7154  160.9800 C.3     1  UNL1        0.1268
      8 N         140.6771  144.6669  160.4750 N.am    1  UNL1       -0.2380
      9 C         140.0996  145.7030  161.3932 C.2     1  UNL1        0.2607
     10 O         139.0558  146.6546  160.8882 O.2     1  UNL1       -0.2718
     11 C         140.5659  145.7875  162.8164 C.3     1  UNL1        0.2274
     12 O         141.6097  144.8359  163.3214 O.3     1  UNL1       -0.3475
     13 C         140.2107  144.5825  159.0518 C.ar    1  UNL1        0.1575
     14 C         139.4581  143.3739  158.5797 C.ar    1  UNL1        0.0414
     15 C         138.9918  143.2894  157.1566 C.ar    1  UNL1        0.0651
     16 C         139.2780  144.4134  156.2056 C.ar    1  UNL1        0.2766
     17 O         138.8117  144.3289  154.7824 O.2     1  UNL1       -0.2655
     18 N         140.0306  145.6220  156.6777 N.ar    1  UNL1       -0.2134
     19 C         140.3169  146.7461  155.7266 C.3     1  UNL1        0.1571
     20 N         140.4970  145.7065  158.1008 N.ar    1  UNL1       -0.1513
     21 C         145.3186  140.9452  163.9181 C.3     1  UNL1        0.1063
     22 C         144.9177  139.5899  164.4206 C.3     1  UNL1        0.1483
     23 O         145.9665  138.5583  164.7136 O.3     1  UNL1       -0.3786
     24 H         145.5412  137.7449  165.0274 H       1  UNL1        0.2108
     25 C         143.3628  138.2046  162.2612 C.3     1  UNL1        0.0306
     26 C         142.6906  138.5735  163.5504 C.ar    1  UNL1       -0.0238
     27 C         143.4681  139.2662  164.6301 C.ar    1  UNL1        0.0015
     28 C         142.7959  139.6351  165.9193 C.ar    1  UNL1       -0.0020
     29 C         141.3464  139.3115  166.1288 C.ar    1  UNL1        0.0060
     30 C         140.5689  138.6188  165.0491 C.ar    1  UNL1        0.0748
     31 C         141.2411  138.2499  163.7599 C.ar    1  UNL1        0.0233
     32 C         140.2259  137.5778  162.8837 C.3     1  UNL1        0.2352
     33 O         138.9263  137.5314  163.6314 O.3     1  UNL1       -0.4404
     34 C         139.1384  138.1748  164.9697 C.2     1  UNL1        0.3413
     35 O         138.1018  138.3444  166.0405 O.2     1  UNL1       -0.2449
@<TRIPOS>BOND
     1    25    26    1
     2    26    27   ar
     3    27    22    1
     4    22    23    1
     5    22    21    1
     6    21     1    1
     7     1     2    1
     8     2     3    1
     9     3     4    1
    10     4     5    1
    11     5     6    1
    12     4     7    1
    13     7     8    1
    14     8    13    1
    15    13    14   ar
    16    14    15   ar
    17    15    16   ar
    18    16    17    2
    19    16    18   ar
    20    18    19    1
    21    18    20   ar
    22     8     9   am
    23     9    10    2
    24     9    11    1
    25    11    12    1
    26    27    28   ar
    27    28    29   ar
    28    29    30   ar
    29    30    31   ar
    30    31    32    1
    31    32    33    1
    32    33    34    1
    33    34    35    2
    34    31    26   ar
    35     6     1    1
    36    20    13   ar
    37    34    30    1
    38    12     4    1
    39    23    24    1
@<TRIPOS>MOLECULE
*****
 35 39 0 0 0
SMALL
GASTEIGER

@<TRIPOS>ATOM
      1 N         142.9723  138.1673  157.5787 N.3     1  UNL1       -0.2702
      2 C         142.7618  137.7619  159.0074 C.3     1  UNL1        0.0747
      3 C         143.1052  138.7131  160.1152 C.3     1  UNL1        0.0463
      4 C         143.6593  140.0696  159.7943 C.3     1  UNL1        0.1146
      5 C         143.8698  140.4749  158.3656 C.3     1  UNL1        0.0463
      6 C         143.5264  139.5238  157.2578 C.3     1  UNL1        0.0747
      7 C         143.4487  139.6642  161.2231 C.3     1  UNL1        0.1268
      8 N         143.7922  140.6154  162.3310 N.am    1  UNL1       -0.2380
      9 C         144.3462  141.9719  162.0100 C.2     1  UNL1        0.2607
     10 O         144.6897  142.9231  163.1180 O.2     1  UNL1       -0.2718
     11 C         144.5568  142.3772  160.5813 C.3     1  UNL1        0.2274
     12 O         144.2133  141.4261  159.4734 O.3     1  UNL1       -0.3475
     13 C         143.5816  140.2101  163.7598 C.ar    1  UNL1        0.1575
     14 C         144.4290  139.1309  164.3659 C.ar    1  UNL1        0.0414
     15 C         144.2184  138.7256  165.7946 C.ar    1  UNL1        0.0651
     16 C         143.1606  139.3994  166.6173 C.ar    1  UNL1        0.2766
     17 O         142.9500  138.9941  168.0461 O.2     1  UNL1       -0.2655
     18 N         142.3132  140.4786  166.0112 N.ar    1  UNL1       -0.2134
     19 C         141.2553  141.1525  166.8339 C.3     1  UNL1        0.1571
     20 N         142.5237  140.8839  164.5824 N.ar    1  UNL1       -0.1513
     21 C         142.6289  137.2161  156.4708 C.3     1  UNL1        0.1063
     22 C         143.6648  136.2635  155.9520 C.3     1  UNL1        0.1483
     23 O         144.9572  136.7883  155.4004 O.3     1  UNL1       -0.3786
     24 H         145.5102  136.0460  155.1104 H       1  UNL1        0.2108
     25 C         142.2788  134.9298  153.6498 C.3     1  UNL1        0.0306
     26 C         142.7155  134.1190  154.8338 C.ar    1  UNL1       -0.0238
     27 C         143.4085  134.7858  155.9849 C.ar    1  UNL1        0.0015
     28 C         143.8452  133.9751  157.1690 C.ar    1  UNL1       -0.0020
     29 C         143.5889  132.4975  157.2019 C.ar    1  UNL1        0.0060
     30 C         142.8959  131.8307  156.0508 C.ar    1  UNL1        0.0748
     31 C         142.4592  132.6415  154.8668 C.ar    1  UNL1        0.0233
     32 C         141.8029  131.7146  153.8869 C.3     1  UNL1        0.2352
     33 O         141.8341  130.3309  154.4653 O.3     1  UNL1       -0.4404
     34 C         142.5096  130.4027  155.8027 C.2     1  UNL1        0.3413
     35 O         142.7555  129.2491  156.7293 O.2     1  UNL1       -0.2449
@<TRIPOS>BOND
     1    25    26    1
     2    26    27   ar
     3    27    22    1
     4    22    23    1
     5    22    21    1
     6    21     1    1
     7     1     2    1
     8     2     3    1
     9     3     4    1
    10     4     5    1
    11     5     6    1
    12     4     7    1
    13     7     8    1
    14     8    13    1
    15    13    14   ar
    16    14    15   ar
    17    15    16   ar
    18    16    17    2
    19    16    18   ar
    20    18    19    1
    21    18    20   ar
    22     8     9   am
    23     9    10    2
    24     9    11    1
    25    11    12    1
    26    27    28   ar
    27    28    29   ar
    28    29    30   ar
    29    30    31   ar
    30    31    32    1
    31    32    33    1
    32    33    34    1
    33    34    35    2
    34    31    26   ar
    35     6     1    1
    36    20    13   ar
    37    34    30    1
    38    12     4    1
    39    23    24    1
@<TRIPOS>MOLECULE
*****
 35 39 0 0 0
SMALL
GASTEIGER

@<TRIPOS>ATOM
      1 N         138.9451  141.1063  163.7759 N.3     1  UNL1       -0.2702
      2 C         139.7531  140.5640  162.6345 C.3     1  UNL1        0.0747
      3 C         140.3429  141.5001  161.6217 C.3     1  UNL1        0.0463
      4 C         140.1246  142.9785  161.7502 C.3     1  UNL1        0.1146
      5 C         139.3165  143.5209  162.8916 C.3     1  UNL1        0.0463
      6 C         138.7267  142.5848  163.9045 C.3     1  UNL1        0.0747
      7 C         140.9327  142.4362  160.6088 C.3     1  UNL1        0.1268
      8 N         141.5225  143.3723  159.5960 N.am    1  UNL1       -0.2380
      9 C         141.3042  144.8507  159.7245 C.2     1  UNL1        0.2607
     10 O         141.8940  145.7868  158.7116 O.2     1  UNL1       -0.2718
     11 C         140.4961  145.3931  160.8659 C.3     1  UNL1        0.2274
     12 O         139.9063  144.4570  161.8788 O.3     1  UNL1       -0.3475
     13 C         142.3306  142.8299  158.4545 C.ar    1  UNL1        0.1575
     14 C         141.6418  142.1972  157.2818 C.ar    1  UNL1        0.0414
     15 C         142.4498  141.6548  156.1404 C.ar    1  UNL1        0.0651
     16 C         143.9467  141.7453  156.1717 C.ar    1  UNL1        0.2766
     17 O         144.7549  141.2029  155.0302 O.2     1  UNL1       -0.2655
     18 N         144.6356  142.3780  157.3443 N.ar    1  UNL1       -0.2134
     19 C         146.1326  142.4684  157.3755 C.3     1  UNL1        0.1571
     20 N         143.8275  142.9203  158.4857 N.ar    1  UNL1       -0.1513
     21 C         138.3552  140.1702  164.7888 C.3     1  UNL1        0.1063
     22 C         139.2517  139.4240  165.7319 C.3     1  UNL1        0.1483
     23 O         139.7476  138.0553  165.3704 O.3     1  UNL1       -0.3786
     24 H         140.3111  137.7168  166.0837 H       1  UNL1        0.2108
     25 C         141.6868  141.1703  165.8757 C.3     1  UNL1        0.0306
     26 C         140.8698  140.9197  167.1085 C.ar    1  UNL1       -0.0238
     27 C         139.6523  140.0466  167.0366 C.ar    1  UNL1        0.0015
     28 C         138.8352  139.7959  168.2693 C.ar    1  UNL1       -0.0020
     29 C         139.2357  140.4184  169.5739 C.ar    1  UNL1        0.0060
     30 C         140.4533  141.2915  169.6458 C.ar    1  UNL1        0.0748
     31 C         141.2703  141.5422  168.4131 C.ar    1  UNL1        0.0233
     32 C         142.4113  142.4409  168.7880 C.3     1  UNL1        0.2352
     33 O         142.2994  142.7456  170.2525 O.3     1  UNL1       -0.4404
     34 C         141.0893  142.0353  170.7826 C.2     1  UNL1        0.3413
     35 O         140.6009  142.0637  172.2006 O.2     1  UNL1       -0.2449
@<TRIPOS>BOND
     1    25    26    1
     2    26    27   ar
     3    27    22    1
     4    22    23    1
     5    22    21    1
     6    21     1    1
     7     1     2    1
     8     2     3    1
     9     3     4    1
    10     4     5    1
    11     5     6    1
    12     4     7    1
    13     7     8    1
    14     8    13    1
    15    13    14   ar
    16    14    15   ar
    17    15    16   ar
    18    16    17    2
    19    16    18   ar
    20    18    19    1
    21    18    20   ar
    22     8     9   am
    23     9    10    2
    24     9    11    1
    25    11    12    1
    26    27    28   ar
    27    28    29   ar
    28    29    30   ar
    29    30    31   ar
    30    31    32    1
    31    32    33    1
    32    33    34    1
    33    34    35    2
    34    31    26   ar
    35     6     1    1
    36    20    13   ar
    37    34    30    1
    38    12     4    1
    39    23    24    1
@<TRIPOS>MOLECULE
*****
 35 39 0 0 0
SMALL
GASTEIGER

@<TRIPOS>ATOM
      1 N         139.8433  138.3360  162.0706 N.3     1  UNL1       -0.2702
      2 C         139.2244  139.1794  163.1456 C.3     1  UNL1        0.0747
      3 C         139.9230  139.3477  164.4622 C.3     1  UNL1        0.0463
      4 C         141.2405  138.6726  164.7039 C.3     1  UNL1        0.1146
      5 C         141.8594  137.8292  163.6289 C.3     1  UNL1        0.0463
      6 C         141.1608  137.6609  162.3123 C.3     1  UNL1        0.0747
      7 C         140.6215  139.5160  165.7789 C.3     1  UNL1        0.1268
      8 N         141.3201  139.6843  167.0956 N.am    1  UNL1       -0.2380
      9 C         142.6376  139.0091  167.3373 C.2     1  UNL1        0.2607
     10 O         143.3362  139.1775  168.6540 O.2     1  UNL1       -0.2718
     11 C         143.2566  138.1658  166.2623 C.3     1  UNL1        0.2274
     12 O         142.5580  137.9974  164.9456 O.3     1  UNL1       -0.3475
     13 C         140.7012  140.5277  168.1706 C.ar    1  UNL1        0.1575
     14 C         139.4769  140.0454  168.8906 C.ar    1  UNL1        0.0414
     15 C         138.8580  140.8887  169.9656 C.ar    1  UNL1        0.0651
     16 C         139.4634  142.2144  170.3206 C.ar    1  UNL1        0.2766
     17 O         138.8445  143.0578  171.3957 O.2     1  UNL1       -0.2655
     18 N         140.6877  142.6967  169.6006 N.ar    1  UNL1       -0.2134
     19 C         141.2931  144.0224  169.9557 C.3     1  UNL1        0.1571
     20 N         141.3066  141.8533  168.5256 N.ar    1  UNL1       -0.1513
     21 C         139.1447  138.1677  160.7539 C.3     1  UNL1        0.1063
     22 C         139.3153  139.1980  159.6772 C.3     1  UNL1        0.1483
     23 O         139.1620  138.8098  158.2365 O.3     1  UNL1       -0.3786
     24 H         139.3030  139.5882  157.6751 H       1  UNL1        0.2108
     25 C         142.1640  140.1388  159.6571 C.3     1  UNL1        0.0306
     26 C         141.0636  141.0870  160.0313 C.ar    1  UNL1       -0.0238
     27 C         139.6393  140.6167  160.0413 C.ar    1  UNL1        0.0015
     28 C         138.5390  141.5650  160.4155 C.ar    1  UNL1       -0.0020
     29 C         138.8629  142.9836  160.7795 C.ar    1  UNL1        0.0060
     30 C         140.2872  143.4539  160.7695 C.ar    1  UNL1        0.0748
     31 C         141.3875  142.5056  160.3953 C.ar    1  UNL1        0.0233
     32 C         142.6875  143.2498  160.4741 C.3     1  UNL1        0.2352
     33 O         142.3906  144.6581  160.8969 O.3     1  UNL1       -0.4404
     34 C         140.9071  144.7842  161.0795 C.2     1  UNL1        0.3413
     35 O         140.1725  146.0230  161.4985 O.2     1  UNL1       -0.2449
@<TRIPOS>BOND
     1    25    26    1
     2    26    27   ar
     3    27    22    1
     4    22    23    1
     5    22    21    1
     6    21     1    1
     7     1     2    1
     8     2     3    1
     9     3     4    1
    10     4     5    1
    11     5     6    1
    12     4     7    1
    13     7     8    1
    14     8    13    1
    15    13    14   ar
    16    14    15   ar
    17    15    16   ar
    18    16    17    2
    19    16    18   ar
    20    18    19    1
    21    18    20   ar
    22     8     9   am
    23     9    10    2
    24     9    11    1
    25    11    12    1
    26    27    28   ar
    27    28    29   ar
    28    29    30   ar
    29    30    31   ar
    30    31    32    1
    31    32    33    1
    32    33    34    1
    33    34    35    2
    34    31    26   ar
    35     6     1    1
    36    20    13   ar
    37    34    30    1
    38    12     4    1
    39    23    24    1
