@<TRIPOS>MOLECULE
*****
 29 31 0 0 0
SMALL
GASTEIGER

@<TRIPOS>ATOM
      1 C         141.1262  143.1993  165.2545 C.2     1  UNL1        0.2488
      2 O         142.0918  143.8885  164.3366 O.2     1  UNL1       -0.2700
      3 N         139.6883  143.6251  165.2873 N.am    1  UNL1       -0.3008
      4 H         139.0545  143.1728  165.8897 H       1  UNL1        0.1497
      5 C         139.6081  143.0647  170.9783 C.3     1  UNL1        0.0538
      6 C         140.3314  142.4492  169.8172 C.ar    1  UNL1        0.0785
      7 C         141.1386  141.1854  169.8509 C.ar    1  UNL1        0.0972
      8 N         141.6806  140.9447  168.4731 N.ar    1  UNL1       -0.2770
      9 C         142.5431  139.8542  167.9102 C.ar    1  UNL1        0.1218
     10 N         143.0154  138.7392  168.7955 N.pl3   1  UNL1       -0.3430
     11 C         142.9334  139.8787  166.4621 C.ar    1  UNL1        0.0877
     12 CL        143.7959  138.7883  165.8992 Cl      1  UNL1       -0.0794
     13 C         142.4611  140.9938  165.5768 C.ar    1  UNL1        0.0217
     14 C         141.5985  142.0843  166.1398 C.ar    1  UNL1        0.0887
     15 C         141.2083  142.0597  167.5879 C.ar    1  UNL1        0.1526
     16 N         140.3744  142.9896  168.4186 N.ar    1  UNL1       -0.2306
     17 H         142.7593  138.7231  169.7459 H       1  UNL1        0.1437
     18 H         143.5815  138.0235  168.4260 H       1  UNL1        0.1437
     19 C         139.2160  144.7402  164.4020 C.3     1  UNL1        0.0897
     20 C         139.3963  144.6457  162.9159 C.3     1  UNL1        0.0224
     21 C         139.0040  143.3925  162.1911 C.3     1  UNL1        0.0191
     22 C         139.1843  143.2979  160.7049 C.3     1  UNL1        0.0721
     23 N         139.7570  144.4567  159.9437 N.3     1  UNL1       -0.2727
     24 C         140.1493  145.7099  160.6687 C.3     1  UNL1        0.0721
     25 C         139.9690  145.8044  162.1547 C.3     1  UNL1        0.0191
     26 C         139.9374  144.3622  158.4576 C.3     1  UNL1        0.0720
     27 C         140.6446  145.4581  157.7167 C.3     1  UNL1        0.0160
     28 C         139.8531  146.5347  157.0353 C.3     1  UNL1        0.0014
     29 C         142.1433  145.4773  157.6573 C.3     1  UNL1        0.0014
@<TRIPOS>BOND
     1     5     6    1
     2     6     7   ar
     3     7     8   ar
     4     8     9   ar
     5     9    10    1
     6     9    11   ar
     7    11    12    1
     8    11    13   ar
     9    13    14   ar
    10    14     1    1
    11     1     2    2
    12     1     3   am
    13     3    19    1
    14    19    20    1
    15    20    21    1
    16    21    22    1
    17    22    23    1
    18    23    26    1
    19    26    27    1
    20    27    28    1
    21    27    29    1
    22    23    24    1
    23    24    25    1
    24    14    15   ar
    25    15    16   ar
    26    16     6   ar
    27    15     8   ar
    28    25    20    1
    29    10    17    1
    30    10    18    1
    31     3     4    1
@<TRIPOS>MOLECULE
*****
 29 31 0 0 0
SMALL
GASTEIGER

@<TRIPOS>ATOM
      1 C         142.0889  140.5272  164.4955 C.2     1  UNL1        0.2488
      2 O         141.5511  141.2786  163.3139 O.2     1  UNL1       -0.2700
      3 N         143.4831  139.9748  164.4618 N.am    1  UNL1       -0.3008
      4 H         143.8361  139.4816  165.2373 H       1  UNL1        0.1497
      5 C         143.9192  142.4268  169.7989 C.3     1  UNL1        0.0538
      6 C         142.8787  141.7520  168.9552 C.ar    1  UNL1        0.0785
      7 C         141.5742  141.1944  169.4425 C.ar    1  UNL1        0.0972
      8 N         140.8492  140.6141  168.2645 N.ar    1  UNL1       -0.2770
      9 C         139.5199  139.9302  168.1415 C.ar    1  UNL1        0.1218
     10 N         138.6635  139.7312  169.3569 N.pl3   1  UNL1       -0.3430
     11 C         139.0468  139.4453  166.8032 C.ar    1  UNL1        0.0877
     12 CL        137.7175  138.7614  166.6802 Cl      1  UNL1       -0.0794
     13 C         139.9032  139.6443  165.5878 C.ar    1  UNL1        0.0217
     14 C         141.2326  140.3282  165.7108 C.ar    1  UNL1        0.0887
     15 C         141.7055  140.8131  167.0492 C.ar    1  UNL1        0.1526
     16 N         142.9598  141.5164  167.4760 N.ar    1  UNL1       -0.2306
     17 H         138.9739  140.0495  170.2353 H       1  UNL1        0.1437
     18 H         137.7910  139.2824  169.2762 H       1  UNL1        0.1437
     19 C         144.3395  140.1738  163.2464 C.3     1  UNL1        0.0897
     20 C         143.9369  139.5627  161.9371 C.3     1  UNL1        0.0224
     21 C         143.9550  140.3902  160.6862 C.3     1  UNL1        0.0191
     22 C         143.5524  139.7791  159.3767 C.3     1  UNL1        0.0721
     23 N         143.1319  138.3405  159.3183 N.3     1  UNL1       -0.2727
     24 C         143.1138  137.5129  160.5693 C.3     1  UNL1        0.0721
     25 C         143.5163  138.1240  161.8786 C.3     1  UNL1        0.0191
     26 C         142.7293  137.7294  158.0089 C.3     1  UNL1        0.0720
     27 C         141.5891  138.3127  157.2279 C.3     1  UNL1        0.0160
     28 C         140.1756  137.9734  157.5976 C.3     1  UNL1        0.0014
     29 C         141.8626  139.2353  156.0773 C.3     1  UNL1        0.0014
@<TRIPOS>BOND
     1     5     6    1
     2     6     7   ar
     3     7     8   ar
     4     8     9   ar
     5     9    10    1
     6     9    11   ar
     7    11    12    1
     8    11    13   ar
     9    13    14   ar
    10    14     1    1
    11     1     2    2
    12     1     3   am
    13     3    19    1
    14    19    20    1
    15    20    21    1
    16    21    22    1
    17    22    23    1
    18    23    26    1
    19    26    27    1
    20    27    28    1
    21    27    29    1
    22    23    24    1
    23    24    25    1
    24    14    15   ar
    25    15    16   ar
    26    16     6   ar
    27    15     8   ar
    28    25    20    1
    29    10    17    1
    30    10    18    1
    31     3     4    1
@<TRIPOS>MOLECULE
*****
 29 31 0 0 0
SMALL
GASTEIGER

@<TRIPOS>ATOM
      1 C         140.3891  144.7138  160.0948 C.2     1  UNL1        0.2488
      2 O         139.1375  143.9122  160.2968 O.2     1  UNL1       -0.2700
      3 N         140.8311  145.6913  161.1432 N.am    1  UNL1       -0.3008
      4 H         141.6526  146.2174  161.0107 H       1  UNL1        0.1497
      5 C         139.0505  147.7687  155.1998 C.3     1  UNL1        0.0538
      6 C         139.9192  146.7682  155.9029 C.ar    1  UNL1        0.0785
      7 C         141.0848  146.0379  155.3047 C.ar    1  UNL1        0.0972
      8 N         141.6609  145.1407  156.3598 N.ar    1  UNL1       -0.2770
      9 C         142.8180  144.1864  156.3435 C.ar    1  UNL1        0.1218
     10 N         143.6276  144.0106  155.0930 N.pl3   1  UNL1       -0.3430
     11 C         143.1655  143.4078  157.5776 C.ar    1  UNL1        0.0877
     12 CL        144.3226  142.4535  157.5613 Cl      1  UNL1       -0.0794
     13 C         142.3559  143.5836  158.8281 C.ar    1  UNL1        0.0217
     14 C         141.1987  144.5380  158.8443 C.ar    1  UNL1        0.0887
     15 C         140.8512  145.3165  157.6102 C.ar    1  UNL1        0.1526
     16 N         139.7749  146.3224  157.3279 N.ar    1  UNL1       -0.2306
     17 H         143.3995  144.5216  154.2830 H       1  UNL1        0.1437
     18 H         144.3871  143.3842  155.0823 H       1  UNL1        0.1437
     19 C         140.0215  145.8671  162.3937 C.3     1  UNL1        0.0897
     20 C         140.2053  144.9235  163.5451 C.3     1  UNL1        0.0224
     21 C         141.4540  144.0985  163.6466 C.3     1  UNL1        0.0191
     22 C         141.6379  143.1549  164.7981 C.3     1  UNL1        0.0721
     23 N         140.5731  143.0362  165.8479 N.3     1  UNL1       -0.2727
     24 C         139.3244  143.8613  165.7463 C.3     1  UNL1        0.0721
     25 C         139.1406  144.8049  164.5949 C.3     1  UNL1        0.0191
     26 C         140.7569  142.0926  166.9993 C.3     1  UNL1        0.0720
     27 C         141.2809  142.6013  168.3096 C.3     1  UNL1        0.0160
     28 C         140.3957  143.4154  169.2061 C.3     1  UNL1        0.0014
     29 C         142.6899  142.2958  168.7234 C.3     1  UNL1        0.0014
@<TRIPOS>BOND
     1     5     6    1
     2     6     7   ar
     3     7     8   ar
     4     8     9   ar
     5     9    10    1
     6     9    11   ar
     7    11    12    1
     8    11    13   ar
     9    13    14   ar
    10    14     1    1
    11     1     2    2
    12     1     3   am
    13     3    19    1
    14    19    20    1
    15    20    21    1
    16    21    22    1
    17    22    23    1
    18    23    26    1
    19    26    27    1
    20    27    28    1
    21    27    29    1
    22    23    24    1
    23    24    25    1
    24    14    15   ar
    25    15    16   ar
    26    16     6   ar
    27    15     8   ar
    28    25    20    1
    29    10    17    1
    30    10    18    1
    31     3     4    1
@<TRIPOS>MOLECULE
*****
 29 31 0 0 0
SMALL
GASTEIGER

@<TRIPOS>ATOM
      1 C         141.8665  137.6065  157.5691 C.2     1  UNL1        0.2488
      2 O         141.0977  138.8889  157.4500 O.2     1  UNL1       -0.2700
      3 N         142.6489  137.3141  158.8151 N.am    1  UNL1       -0.3008
      4 H         143.1535  136.4724  158.8934 H       1  UNL1        0.1497
      5 C         144.9831  132.5840  157.9512 C.3     1  UNL1        0.0538
      6 C         144.0598  133.4775  157.1772 C.ar    1  UNL1        0.0785
      7 C         143.5061  133.2018  155.8106 C.ar    1  UNL1        0.0972
      8 N         142.6322  134.3575  155.4226 N.ar    1  UNL1       -0.2770
      9 C         141.8259  134.6362  154.1889 C.ar    1  UNL1        0.1218
     10 N         141.8123  133.6462  153.0622 N.pl3   1  UNL1       -0.3430
     11 C         141.0330  135.9051  154.0819 C.ar    1  UNL1        0.0877
     12 CL        140.2267  136.1839  152.8482 Cl      1  UNL1       -0.0794
     13 C         141.0466  136.8952  155.2086 C.ar    1  UNL1        0.0217
     14 C         141.8530  136.6164  156.4424 C.ar    1  UNL1        0.0887
     15 C         142.6457  135.3476  156.5494 C.ar    1  UNL1        0.1526
     16 N         143.5280  134.8037  157.6337 N.ar    1  UNL1       -0.2306
     17 H         142.3327  132.8134  153.1324 H       1  UNL1        0.1437
     18 H         141.2831  133.8291  152.2524 H       1  UNL1        0.1437
     19 C         142.6625  138.3042  159.9419 C.3     1  UNL1        0.0897
     20 C         141.7158  138.1422  161.0940 C.3     1  UNL1        0.0224
     21 C         140.2361  138.2396  160.8683 C.3     1  UNL1        0.0191
     22 C         139.2893  138.0776  162.0205 C.3     1  UNL1        0.0721
     23 N         139.8223  137.8182  163.3984 N.3     1  UNL1       -0.2727
     24 C         141.3021  137.7209  163.6241 C.3     1  UNL1        0.0721
     25 C         142.2488  137.8828  162.4719 C.3     1  UNL1        0.0191
     26 C         138.8756  137.6563  164.5505 C.3     1  UNL1        0.0720
     27 C         138.4696  138.8512  165.3614 C.3     1  UNL1        0.0160
     28 C         138.5761  140.2273  164.7742 C.3     1  UNL1        0.0014
     29 C         137.9573  138.6699  166.7594 C.3     1  UNL1        0.0014
@<TRIPOS>BOND
     1     5     6    1
     2     6     7   ar
     3     7     8   ar
     4     8     9   ar
     5     9    10    1
     6     9    11   ar
     7    11    12    1
     8    11    13   ar
     9    13    14   ar
    10    14     1    1
    11     1     2    2
    12     1     3   am
    13     3    19    1
    14    19    20    1
    15    20    21    1
    16    21    22    1
    17    22    23    1
    18    23    26    1
    19    26    27    1
    20    27    28    1
    21    27    29    1
    22    23    24    1
    23    24    25    1
    24    14    15   ar
    25    15    16   ar
    26    16     6   ar
    27    15     8   ar
    28    25    20    1
    29    10    17    1
    30    10    18    1
    31     3     4    1
@<TRIPOS>MOLECULE
*****
 29 31 0 0 0
SMALL
GASTEIGER

@<TRIPOS>ATOM
      1 C         143.2988  141.0541  165.9381 C.2     1  UNL1        0.2488
      2 O         143.8355  142.2180  165.1590 O.2     1  UNL1       -0.2700
      3 N         143.5308  139.6544  165.4509 N.am    1  UNL1       -0.3008
      4 H         143.1785  138.8904  165.9622 H       1  UNL1        0.1497
      5 C         137.9644  138.5980  166.7104 C.3     1  UNL1        0.0538
      6 C         139.0795  139.4577  167.2274 C.ar    1  UNL1        0.0785
      7 C         139.1132  140.1536  168.5558 C.ar    1  UNL1        0.0972
      8 N         140.4113  140.8984  168.6562 N.ar    1  UNL1       -0.2770
      9 C         140.9927  141.7607  169.7371 C.ar    1  UNL1        0.1218
     10 N         140.2240  141.9962  171.0035 N.pl3   1  UNL1       -0.3430
     11 C         142.3429  142.3874  169.5517 C.ar    1  UNL1        0.0877
     12 CL        142.9243  143.2497  170.6327 Cl      1  UNL1       -0.0794
     13 C         143.1116  142.1519  168.2854 C.ar    1  UNL1        0.0217
     14 C         142.5301  141.2896  167.2044 C.ar    1  UNL1        0.0887
     15 C         141.1800  140.6629  167.3899 C.ar    1  UNL1        0.1526
     16 N         140.3569  139.7725  166.5068 N.ar    1  UNL1       -0.2306
     17 H         139.3379  141.5849  171.1252 H       1  UNL1        0.1437
     18 H         140.6056  142.5622  171.7129 H       1  UNL1        0.1437
     19 C         144.2995  139.4189  164.1845 C.3     1  UNL1        0.0897
     20 C         143.5684  139.1719  162.8983 C.3     1  UNL1        0.0224
     21 C         144.0980  139.7377  161.6140 C.3     1  UNL1        0.0191
     22 C         143.3669  139.4907  160.3277 C.3     1  UNL1        0.0721
     23 N         142.1062  138.6781  160.3257 N.3     1  UNL1       -0.2727
     24 C         141.5765  138.1123  161.6101 C.3     1  UNL1        0.0721
     25 C         142.3076  138.3593  162.8963 C.3     1  UNL1        0.0191
     26 C         141.3750  138.4311  159.0395 C.3     1  UNL1        0.0720
     27 C         142.1429  138.2387  157.7653 C.3     1  UNL1        0.0160
     28 C         142.7784  136.9135  157.4654 C.3     1  UNL1        0.0014
     29 C         142.2752  139.3715  156.7910 C.3     1  UNL1        0.0014
@<TRIPOS>BOND
     1     5     6    1
     2     6     7   ar
     3     7     8   ar
     4     8     9   ar
     5     9    10    1
     6     9    11   ar
     7    11    12    1
     8    11    13   ar
     9    13    14   ar
    10    14     1    1
    11     1     2    2
    12     1     3   am
    13     3    19    1
    14    19    20    1
    15    20    21    1
    16    21    22    1
    17    22    23    1
    18    23    26    1
    19    26    27    1
    20    27    28    1
    21    27    29    1
    22    23    24    1
    23    24    25    1
    24    14    15   ar
    25    15    16   ar
    26    16     6   ar
    27    15     8   ar
    28    25    20    1
    29    10    17    1
    30    10    18    1
    31     3     4    1
@<TRIPOS>MOLECULE
*****
 29 31 0 0 0
SMALL
GASTEIGER

@<TRIPOS>ATOM
      1 C         140.7150  145.5149  160.4940 C.2     1  UNL1        0.2488
      2 O         139.4528  146.0585  161.0949 O.2     1  UNL1       -0.2700
      3 N         141.8681  145.1445  161.3790 N.am    1  UNL1       -0.3008
      4 H         142.6966  144.7877  160.9847 H       1  UNL1        0.1497
      5 C         144.9198  142.0440  158.1795 C.3     1  UNL1        0.0538
      6 C         143.7491  142.9616  157.9864 C.ar    1  UNL1        0.0785
      7 C         143.1493  143.3607  156.6708 C.ar    1  UNL1        0.0972
      8 N         142.0020  144.2870  156.9463 N.ar    1  UNL1       -0.2770
      9 C         141.0428  144.9950  156.0361 C.ar    1  UNL1        0.1218
     10 N         141.1520  144.8217  154.5502 N.pl3   1  UNL1       -0.3430
     11 C         139.9742  145.8763  156.6119 C.ar    1  UNL1        0.0877
     12 CL        139.0149  146.5843  155.7017 Cl      1  UNL1       -0.0794
     13 C         139.8649  146.0496  158.0978 C.ar    1  UNL1        0.0217
     14 C         140.8243  145.3416  159.0080 C.ar    1  UNL1        0.0887
     15 C         141.8928  144.4603  158.4323 C.ar    1  UNL1        0.1526
     16 N         142.9725  143.6411  159.0751 N.ar    1  UNL1       -0.2306
     17 H         141.8533  144.2433  154.1723 H       1  UNL1        0.1437
     18 H         140.5224  145.2864  153.9528 H       1  UNL1        0.1437
     19 C         141.7589  145.3178  162.8650 C.3     1  UNL1        0.0897
     20 C         141.2110  144.2071  163.7113 C.3     1  UNL1        0.0224
     21 C         139.9994  144.4417  164.5640 C.3     1  UNL1        0.0191
     22 C         139.4515  143.3310  165.4104 C.3     1  UNL1        0.0721
     23 N         140.1153  141.9859  165.4041 N.3     1  UNL1       -0.2727
     24 C         141.3270  141.7514  164.5514 C.3     1  UNL1        0.0721
     25 C         141.8748  142.8620  163.7051 C.3     1  UNL1        0.0191
     26 C         139.5675  140.8752  166.2504 C.3     1  UNL1        0.0720
     27 C         138.5638  139.9197  165.6762 C.3     1  UNL1        0.0160
     28 C         137.9880  138.8319  166.5334 C.3     1  UNL1        0.0014
     29 C         138.1359  140.0522  164.2446 C.3     1  UNL1        0.0014
@<TRIPOS>BOND
     1     5     6    1
     2     6     7   ar
     3     7     8   ar
     4     8     9   ar
     5     9    10    1
     6     9    11   ar
     7    11    12    1
     8    11    13   ar
     9    13    14   ar
    10    14     1    1
    11     1     2    2
    12     1     3   am
    13     3    19    1
    14    19    20    1
    15    20    21    1
    16    21    22    1
    17    22    23    1
    18    23    26    1
    19    26    27    1
    20    27    28    1
    21    27    29    1
    22    23    24    1
    23    24    25    1
    24    14    15   ar
    25    15    16   ar
    26    16     6   ar
    27    15     8   ar
    28    25    20    1
    29    10    17    1
    30    10    18    1
    31     3     4    1
@<TRIPOS>MOLECULE
*****
 29 31 0 0 0
SMALL
GASTEIGER

@<TRIPOS>ATOM
      1 C         139.2242  141.4454  165.5137 C.2     1  UNL1        0.2488
      2 O         138.3234  140.6058  164.6573 O.2     1  UNL1       -0.2700
      3 N         139.2051  142.9396  165.3826 N.am    1  UNL1       -0.3008
      4 H         139.7963  143.4907  165.9448 H       1  UNL1        0.1497
      5 C         144.3919  139.1575  163.7403 C.3     1  UNL1        0.0538
      6 C         143.4145  139.4450  164.8412 C.ar    1  UNL1        0.0785
      7 C         143.5843  139.0846  166.2873 C.ar    1  UNL1        0.0972
      8 N         142.3705  139.5603  167.0293 N.ar    1  UNL1       -0.2770
      9 C         141.9841  139.4820  168.4765 C.ar    1  UNL1        0.1218
     10 N         142.9041  138.8276  169.4641 N.pl3   1  UNL1       -0.3430
     11 C         140.6777  140.0583  168.9362 C.ar    1  UNL1        0.0877
     12 CL        140.2913  139.9801  170.3835 Cl      1  UNL1       -0.0794
     13 C         139.7577  140.7128  167.9486 C.ar    1  UNL1        0.0217
     14 C         140.1442  140.7910  166.5013 C.ar    1  UNL1        0.0887
     15 C         141.4505  140.2147  166.0417 C.ar    1  UNL1        0.1526
     16 N         142.0958  140.1435  164.6894 N.ar    1  UNL1       -0.2306
     17 H         143.7615  138.4494  169.1624 H       1  UNL1        0.1437
     18 H         142.6505  138.7762  170.4140 H       1  UNL1        0.1437
     19 C         138.2851  143.5941  164.3951 C.3     1  UNL1        0.0897
     20 C         138.7245  143.7861  162.9738 C.3     1  UNL1        0.0224
     21 C         138.3349  142.7854  161.9266 C.3     1  UNL1        0.0191
     22 C         138.7744  142.9774  160.5053 C.3     1  UNL1        0.0721
     23 N         139.6034  144.1702  160.1312 N.3     1  UNL1       -0.2727
     24 C         139.9930  145.1710  161.1785 C.3     1  UNL1        0.0721
     25 C         139.5536  144.9789  162.5998 C.3     1  UNL1        0.0191
     26 C         140.0429  144.3622  158.7100 C.3     1  UNL1        0.0720
     27 C         141.4828  144.6486  158.4024 C.3     1  UNL1        0.0160
     28 C         141.8543  145.8799  157.6304 C.3     1  UNL1        0.0014
     29 C         142.5513  143.7038  158.8668 C.3     1  UNL1        0.0014
@<TRIPOS>BOND
     1     5     6    1
     2     6     7   ar
     3     7     8   ar
     4     8     9   ar
     5     9    10    1
     6     9    11   ar
     7    11    12    1
     8    11    13   ar
     9    13    14   ar
    10    14     1    1
    11     1     2    2
    12     1     3   am
    13     3    19    1
    14    19    20    1
    15    20    21    1
    16    21    22    1
    17    22    23    1
    18    23    26    1
    19    26    27    1
    20    27    28    1
    21    27    29    1
    22    23    24    1
    23    24    25    1
    24    14    15   ar
    25    15    16   ar
    26    16     6   ar
    27    15     8   ar
    28    25    20    1
    29    10    17    1
    30    10    18    1
    31     3     4    1
@<TRIPOS>MOLECULE
*****
 29 31 0 0 0
SMALL
GASTEIGER

@<TRIPOS>ATOM
      1 C         144.0683  140.8323  161.0889 C.2     1  UNL1        0.2488
      2 O         144.1084  139.3644  160.7829 O.2     1  UNL1       -0.2700
      3 N         144.3975  141.3201  162.4687 N.am    1  UNL1       -0.3008
      4 H         144.3712  142.2835  162.6696 H       1  UNL1        0.1497
      5 C         140.4668  145.3795  162.2871 C.3     1  UNL1        0.0538
      6 C         141.3077  144.6198  161.3045 C.ar    1  UNL1        0.0785
      7 C         141.5034  144.9661  159.8582 C.ar    1  UNL1        0.0972
      8 N         142.4172  143.9407  159.2555 N.ar    1  UNL1       -0.2770
      9 C         142.9609  143.7728  157.8676 C.ar    1  UNL1        0.1218
     10 N         142.5917  144.7530  156.7938 N.pl3   1  UNL1       -0.3430
     11 C         143.8738  142.6247  157.5535 C.ar    1  UNL1        0.0877
     12 CL        144.4175  142.4569  156.1656 Cl      1  UNL1       -0.0794
     13 C         144.2429  141.6445  158.6272 C.ar    1  UNL1        0.0217
     14 C         143.6992  141.8125  160.0151 C.ar    1  UNL1        0.0887
     15 C         142.7864  142.9605  160.3292 C.ar    1  UNL1        0.1526
     16 N         142.1006  143.3802  161.5956 N.ar    1  UNL1       -0.2306
     17 H         141.9926  145.5065  157.0000 H       1  UNL1        0.1437
     18 H         142.9486  144.6428  155.8829 H       1  UNL1        0.1437
     19 C         144.7666  140.3399  163.5425 C.3     1  UNL1        0.0897
     20 C         143.9588  140.2703  164.8044 C.3     1  UNL1        0.0224
     21 C         143.3675  141.5201  165.3862 C.3     1  UNL1        0.0191
     22 C         142.5596  141.4505  166.6482 C.3     1  UNL1        0.0721
     23 N         142.3431  140.1313  167.3284 N.3     1  UNL1       -0.2727
     24 C         142.9344  138.8815  166.7465 C.3     1  UNL1        0.0721
     25 C         143.7423  138.9511  165.4846 C.3     1  UNL1        0.0191
     26 C         141.5352  140.0617  168.5903 C.3     1  UNL1        0.0720
     27 C         140.0370  140.0955  168.5246 C.3     1  UNL1        0.0160
     28 C         139.3348  139.7616  167.2419 C.3     1  UNL1        0.0014
     29 C         139.2410  140.4633  169.7416 C.3     1  UNL1        0.0014
@<TRIPOS>BOND
     1     5     6    1
     2     6     7   ar
     3     7     8   ar
     4     8     9   ar
     5     9    10    1
     6     9    11   ar
     7    11    12    1
     8    11    13   ar
     9    13    14   ar
    10    14     1    1
    11     1     2    2
    12     1     3   am
    13     3    19    1
    14    19    20    1
    15    20    21    1
    16    21    22    1
    17    22    23    1
    18    23    26    1
    19    26    27    1
    20    27    28    1
    21    27    29    1
    22    23    24    1
    23    24    25    1
    24    14    15   ar
    25    15    16   ar
    26    16     6   ar
    27    15     8   ar
    28    25    20    1
    29    10    17    1
    30    10    18    1
    31     3     4    1
@<TRIPOS>MOLECULE
*****
 29 31 0 0 0
SMALL
GASTEIGER

@<TRIPOS>ATOM
      1 C         141.0272  144.8005  160.3601 C.2     1  UNL1        0.2488
      2 O         139.5462  144.6406  160.5367 O.2     1  UNL1       -0.2700
      3 N         141.8800  145.2200  161.5206 N.am    1  UNL1       -0.3008
      4 H         142.8520  145.3249  161.4046 H       1  UNL1        0.1497
      5 C         139.0718  147.6159  155.5295 C.3     1  UNL1        0.0538
      6 C         140.0150  146.6365  156.1628 C.ar    1  UNL1        0.0785
      7 C         141.0777  145.8508  155.4533 C.ar    1  UNL1        0.0972
      8 N         141.7807  144.9996  156.4687 N.ar    1  UNL1       -0.2770
      9 C         142.9117  144.0217  156.3486 C.ar    1  UNL1        0.1218
     10 N         143.5398  143.7621  155.0114 N.pl3   1  UNL1       -0.3430
     11 C         143.4145  143.3032  157.5656 C.ar    1  UNL1        0.0877
     12 CL        144.5455  142.3253  157.4454 Cl      1  UNL1       -0.0794
     13 C         142.7864  143.5628  158.9028 C.ar    1  UNL1        0.0217
     14 C         141.6553  144.5409  159.0229 C.ar    1  UNL1        0.0887
     15 C         141.1525  145.2592  157.8059 C.ar    1  UNL1        0.1526
     16 N         140.0613  146.2709  157.6168 N.ar    1  UNL1       -0.2306
     17 H         143.2098  144.2335  154.2126 H       1  UNL1        0.1437
     18 H         144.2821  143.1202  154.9325 H       1  UNL1        0.1437
     19 C         141.2518  145.4796  162.8577 C.3     1  UNL1        0.0897
     20 C         140.8359  144.3300  163.7269 C.3     1  UNL1        0.0224
     21 C         139.6446  144.4641  164.6283 C.3     1  UNL1        0.0191
     22 C         139.2286  143.3144  165.4975 C.3     1  UNL1        0.0721
     23 N         140.0040  142.0308  165.4652 N.3     1  UNL1       -0.2727
     24 C         141.1954  141.8968  164.5636 C.3     1  UNL1        0.0721
     25 C         141.6113  143.0464  163.6945 C.3     1  UNL1        0.0191
     26 C         139.5880  140.8812  166.3343 C.3     1  UNL1        0.0720
     27 C         138.5887  139.8827  165.8298 C.3     1  UNL1        0.0160
     28 C         138.0319  138.8443  166.7579 C.3     1  UNL1        0.0014
     29 C         138.1464  139.9227  164.3970 C.3     1  UNL1        0.0014
@<TRIPOS>BOND
     1     5     6    1
     2     6     7   ar
     3     7     8   ar
     4     8     9   ar
     5     9    10    1
     6     9    11   ar
     7    11    12    1
     8    11    13   ar
     9    13    14   ar
    10    14     1    1
    11     1     2    2
    12     1     3   am
    13     3    19    1
    14    19    20    1
    15    20    21    1
    16    21    22    1
    17    22    23    1
    18    23    26    1
    19    26    27    1
    20    27    28    1
    21    27    29    1
    22    23    24    1
    23    24    25    1
    24    14    15   ar
    25    15    16   ar
    26    16     6   ar
    27    15     8   ar
    28    25    20    1
    29    10    17    1
    30    10    18    1
    31     3     4    1
