@<TRIPOS>MOLECULE
*****
 40 44 0 0 0
SMALL
GASTEIGER

@<TRIPOS>ATOM
      1 N         139.9344  143.8501  164.0081 N.ar    1  UNL1       -0.2789
      2 C         139.9848  144.6049  162.7129 C.ar    1  UNL1        0.2934
      3 O         138.7269  145.1755  162.1278 O.2     1  UNL1       -0.2639
      4 C         141.2930  144.7892  162.0026 C.ar    1  UNL1        0.1859
      5 N         142.5509  144.2187  162.5876 N.ar    1  UNL1       -0.2217
      6 C         142.5005  143.4639  163.8829 C.ar    1  UNL1        0.1361
      7 C         143.7584  142.8934  164.4679 C.ar    1  UNL1        0.1227
      8 N         143.7080  142.1386  165.7631 N.ar    1  UNL1       -0.2231
      9 C         142.3997  141.9543  166.4734 C.ar    1  UNL1        0.1696
     10 N         141.1419  142.5248  165.8884 N.ar    1  UNL1       -0.2076
     11 C         141.1923  143.2796  164.5932 C.ar    1  UNL1        0.1671
     12 C         142.3494  141.1995  167.7687 C.ar    1  UNL1        0.1025
     13 C         141.9629  141.9062  169.0340 C.ar    1  UNL1        0.2305
     14 N         141.9125  141.1513  170.3294 N.ar    1  UNL1       -0.1893
     15 C         142.2486  139.6898  170.3592 C.ar    1  UNL1        0.2012
     16 N         142.6351  138.9831  169.0938 N.ar    1  UNL1       -0.2281
     17 C         142.6855  139.7379  167.7986 C.ar    1  UNL1        0.0678
     18 C         143.0719  139.0312  166.5331 C.3     1  UNL1        0.0406
     19 C         144.1197  138.6283  165.5382 C.3     1  UNL1        0.0063
     20 C         142.6935  138.2101  165.3363 C.3     1  UNL1        0.0063
     21 O         141.6268  143.3677  169.0042 O.3     1  UNL1       -0.4560
     22 C         140.4838  143.8913  169.8224 C.3     1  UNL1        0.2542
     23 C         138.6261  143.6658  164.7183 C.3     1  UNL1        0.0900
     24 C         138.1009  144.7473  165.6155 C.3     1  UNL1        0.0246
     25 C         137.3822  141.9986  163.1617 C.3     1  UNL1        0.0020
     26 C         137.8430  142.4002  164.5315 C.3     1  UNL1        0.0227
     27 N         141.3434  145.5441  160.7073 N.pl3   1  UNL1       -0.3094
     28 H         141.2240  146.5213  160.7021 H       1  UNL1        0.1487
     29 C         141.5757  144.8100  159.4200 C.3     1  UNL1        0.1349
     30 C         140.4547  144.0466  158.7792 C.ar    1  UNL1        0.0789
     31 C         140.0213  144.3815  157.3827 C.ar    1  UNL1        0.0178
     32 C         138.9004  143.6181  156.7419 C.ar    1  UNL1        0.0212
     33 C         138.2128  142.5198  157.4975 C.ar    1  UNL1        0.1247
     34 C         138.6461  142.1849  158.8940 C.ar    1  UNL1        0.1168
     35 N         139.7671  142.9483  159.5348 N.ar    1  UNL1       -0.2451
     36 S         137.0918  141.7564  156.8567 S.O2    1  UNL1        0.0101
     37 O         136.8457  142.9029  155.9214 O.2     1  UNL1       -0.1686
     38 O         137.3380  140.6099  157.7921 O.2     1  UNL1       -0.1686
     39 C         135.9709  140.9929  156.2160 C.3     1  UNL1        0.1560
     40 C         135.1434  141.6354  155.1424 C.3     1  UNL1        0.0276
@<TRIPOS>BOND
     1    25    26    1
     2    26    23    1
     3    23    24    1
     4    23     1    1
     5     1     2   ar
     6     2     3    2
     7     2     4   ar
     8     4    27    1
     9    27    29    1
    10    29    30    1
    11    30    31   ar
    12    31    32   ar
    13    32    33   ar
    14    33    36    1
    15    36    37    2
    16    36    38    2
    17    36    39    1
    18    39    40    1
    19    33    34   ar
    20    34    35   ar
    21     4     5   ar
    22     5     6   ar
    23     6     7   ar
    24     7     8   ar
    25     8     9   ar
    26     9    12    1
    27    12    13   ar
    28    13    21    1
    29    21    22    1
    30    13    14   ar
    31    14    15   ar
    32    15    16   ar
    33    16    17   ar
    34    17    18    1
    35    18    19    1
    36    19    20    1
    37     9    10   ar
    38    10    11   ar
    39    11     1   ar
    40    35    30   ar
    41    11     6   ar
    42    17    12   ar
    43    20    18    1
    44    27    28    1
@<TRIPOS>MOLECULE
*****
 40 44 0 0 0
SMALL
GASTEIGER

@<TRIPOS>ATOM
      1 N         140.0098  143.5400  163.7328 N.ar    1  UNL1       -0.2789
      2 C         140.0920  144.3409  162.4673 C.ar    1  UNL1        0.2934
      3 O         138.8400  144.6933  161.7200 O.2     1  UNL1       -0.2639
      4 C         141.4262  144.7895  161.9489 C.ar    1  UNL1        0.1859
      5 N         142.6782  144.4372  162.6961 N.ar    1  UNL1       -0.2217
      6 C         142.5960  143.6362  163.9618 C.ar    1  UNL1        0.1361
      7 C         143.8480  143.2839  164.7090 C.ar    1  UNL1        0.1227
      8 N         143.7658  142.4830  165.9746 N.ar    1  UNL1       -0.2231
      9 C         142.4316  142.0344  166.4929 C.ar    1  UNL1        0.1696
     10 N         141.1796  142.3867  165.7457 N.ar    1  UNL1       -0.2076
     11 C         141.2618  143.1877  164.4801 C.ar    1  UNL1        0.1671
     12 C         142.3494  141.2335  167.7586 C.ar    1  UNL1        0.1025
     13 C         141.9441  141.8972  169.0412 C.ar    1  UNL1        0.2305
     14 N         141.8619  141.0962  170.3068 N.ar    1  UNL1       -0.1893
     15 C         142.1851  139.6315  170.2898 C.ar    1  UNL1        0.2012
     16 N         142.5904  138.9678  169.0071 N.ar    1  UNL1       -0.2281
     17 C         142.6726  139.7688  167.7415 C.ar    1  UNL1        0.0678
     18 C         143.0779  139.1051  166.4588 C.3     1  UNL1        0.0406
     19 C         144.1368  138.7532  165.4563 C.3     1  UNL1        0.0063
     20 C         142.7210  138.3074  165.2397 C.3     1  UNL1        0.0063
     21 O         141.6209  143.3619  169.0582 O.3     1  UNL1       -0.4560
     22 C         140.4626  143.8649  169.8677 C.3     1  UNL1        0.2542
     23 C         138.6756  143.0915  164.2512 C.3     1  UNL1        0.0900
     24 C         137.8387  144.0248  165.0749 C.3     1  UNL1        0.0246
     25 C         138.2717  140.6322  164.9853 C.3     1  UNL1        0.0020
     26 C         138.1784  141.7096  163.9459 C.3     1  UNL1        0.0227
     27 N         141.5084  145.5905  160.6833 N.pl3   1  UNL1       -0.3094
     28 H         141.7144  146.5524  160.7220 H       1  UNL1        0.1487
     29 C         141.2767  144.9258  159.3587 C.3     1  UNL1        0.1349
     30 C         141.5643  143.4630  159.1932 C.ar    1  UNL1        0.0789
     31 C         140.4378  142.4975  158.9717 C.ar    1  UNL1        0.0178
     32 C         140.7254  141.0347  158.8062 C.ar    1  UNL1        0.0212
     33 C         142.1394  140.5373  158.8621 C.ar    1  UNL1        0.1247
     34 C         143.2659  141.5027  159.0835 C.ar    1  UNL1        0.1168
     35 N         142.9783  142.9656  159.2490 N.ar    1  UNL1       -0.2451
     36 S         142.4270  139.0745  158.6966 S.O2    1  UNL1        0.0101
     37 O         140.9568  138.7979  158.5868 O.2     1  UNL1       -0.1686
     38 O         143.8971  139.3511  158.8063 O.2     1  UNL1       -0.1686
     39 C         142.7146  137.6116  158.5310 C.3     1  UNL1        0.1560
     40 C         142.6987  136.9941  157.1641 C.3     1  UNL1        0.0276
@<TRIPOS>BOND
     1    25    26    1
     2    26    23    1
     3    23    24    1
     4    23     1    1
     5     1     2   ar
     6     2     3    2
     7     2     4   ar
     8     4    27    1
     9    27    29    1
    10    29    30    1
    11    30    31   ar
    12    31    32   ar
    13    32    33   ar
    14    33    36    1
    15    36    37    2
    16    36    38    2
    17    36    39    1
    18    39    40    1
    19    33    34   ar
    20    34    35   ar
    21     4     5   ar
    22     5     6   ar
    23     6     7   ar
    24     7     8   ar
    25     8     9   ar
    26     9    12    1
    27    12    13   ar
    28    13    21    1
    29    21    22    1
    30    13    14   ar
    31    14    15   ar
    32    15    16   ar
    33    16    17   ar
    34    17    18    1
    35    18    19    1
    36    19    20    1
    37     9    10   ar
    38    10    11   ar
    39    11     1   ar
    40    35    30   ar
    41    11     6   ar
    42    17    12   ar
    43    20    18    1
    44    27    28    1
@<TRIPOS>MOLECULE
*****
 40 44 0 0 0
SMALL
GASTEIGER

@<TRIPOS>ATOM
      1 N         140.1726  143.1454  163.5568 N.ar    1  UNL1       -0.2789
      2 C         140.2481  143.9665  162.3039 C.ar    1  UNL1        0.2934
      3 O         139.0335  144.1277  161.4384 O.2     1  UNL1       -0.2639
      4 C         141.5381  144.6266  161.9163 C.ar    1  UNL1        0.1859
      5 N         142.7526  144.4655  162.7817 N.ar    1  UNL1       -0.2217
      6 C         142.6771  143.6443  164.0348 C.ar    1  UNL1        0.1361
      7 C         143.8916  143.4832  164.9002 C.ar    1  UNL1        0.1227
      8 N         143.8161  142.6621  166.1532 N.ar    1  UNL1       -0.2231
      9 C         142.5261  142.0020  166.5407 C.ar    1  UNL1        0.1696
     10 N         141.3116  142.1631  165.6753 N.ar    1  UNL1       -0.2076
     11 C         141.3871  142.9843  164.4223 C.ar    1  UNL1        0.1671
     12 C         142.4506  141.1808  167.7938 C.ar    1  UNL1        0.1025
     13 C         142.0821  141.8300  169.0948 C.ar    1  UNL1        0.2305
     14 N         142.0066  141.0088  170.3478 N.ar    1  UNL1       -0.1893
     15 C         142.2997  139.5385  170.2997 C.ar    1  UNL1        0.2012
     16 N         142.6683  138.8894  168.9986 N.ar    1  UNL1       -0.2281
     17 C         142.7437  139.7105  167.7457 C.ar    1  UNL1        0.0678
     18 C         143.1123  139.0614  166.4445 C.3     1  UNL1        0.0406
     19 C         142.7293  138.2462  165.2450 C.3     1  UNL1        0.0063
     20 C         144.1338  138.7524  165.3905 C.3     1  UNL1        0.0063
     21 O         141.7890  143.3003  169.1429 O.3     1  UNL1       -0.4560
     22 C         140.4946  143.7884  169.7230 C.3     1  UNL1        0.2542
     23 C         138.8826  142.4853  163.9444 C.3     1  UNL1        0.0900
     24 C         138.6181  141.0637  163.5455 C.3     1  UNL1        0.0246
     25 C         138.1781  144.6151  165.2550 C.3     1  UNL1        0.0020
     26 C         137.8571  143.2469  164.7307 C.3     1  UNL1        0.0227
     27 N         141.6136  145.4478  160.6633 N.pl3   1  UNL1       -0.3094
     28 H         141.8958  146.3899  160.7084 H       1  UNL1        0.1487
     29 C         141.2590  144.8336  159.3416 C.3     1  UNL1        0.1349
     30 C         142.2876  144.0547  158.5765 C.ar    1  UNL1        0.0789
     31 C         142.1834  143.9381  157.0846 C.ar    1  UNL1        0.0178
     32 C         143.2120  143.1593  156.3196 C.ar    1  UNL1        0.0212
     33 C         144.3448  142.4969  157.0463 C.ar    1  UNL1        0.1247
     34 C         144.4490  142.6135  158.5381 C.ar    1  UNL1        0.1168
     35 N         143.4204  143.3924  159.3033 N.ar    1  UNL1       -0.2451
     36 S         145.3734  141.7181  156.2813 S.O2    1  UNL1        0.0101
     37 O         145.5811  142.8896  155.3679 O.2     1  UNL1       -0.1686
     38 O         145.1656  140.5465  157.1946 O.2     1  UNL1       -0.1686
     39 C         146.4020  140.9391  155.5162 C.3     1  UNL1        0.1560
     40 C         147.7375  141.5528  155.2165 C.3     1  UNL1        0.0276
@<TRIPOS>BOND
     1    25    26    1
     2    26    23    1
     3    23    24    1
     4    23     1    1
     5     1     2   ar
     6     2     3    2
     7     2     4   ar
     8     4    27    1
     9    27    29    1
    10    29    30    1
    11    30    31   ar
    12    31    32   ar
    13    32    33   ar
    14    33    36    1
    15    36    37    2
    16    36    38    2
    17    36    39    1
    18    39    40    1
    19    33    34   ar
    20    34    35   ar
    21     4     5   ar
    22     5     6   ar
    23     6     7   ar
    24     7     8   ar
    25     8     9   ar
    26     9    12    1
    27    12    13   ar
    28    13    21    1
    29    21    22    1
    30    13    14   ar
    31    14    15   ar
    32    15    16   ar
    33    16    17   ar
    34    17    18    1
    35    18    19    1
    36    19    20    1
    37     9    10   ar
    38    10    11   ar
    39    11     1   ar
    40    35    30   ar
    41    11     6   ar
    42    17    12   ar
    43    20    18    1
    44    27    28    1
@<TRIPOS>MOLECULE
*****
 40 44 0 0 0
SMALL
GASTEIGER

@<TRIPOS>ATOM
      1 N         139.0651  142.5026  163.2501 N.ar    1  UNL1       -0.2789
      2 C         138.4319  142.0766  161.9588 C.ar    1  UNL1        0.2934
      3 O         137.6651  143.0693  161.1361 O.2     1  UNL1       -0.2639
      4 C         138.5652  140.6579  161.4902 C.ar    1  UNL1        0.1859
      5 N         139.3319  139.6653  162.3129 N.ar    1  UNL1       -0.2217
      6 C         139.9652  140.0913  163.6042 C.ar    1  UNL1        0.1361
      7 C         140.7319  139.0986  164.4269 C.ar    1  UNL1        0.1227
      8 N         141.3652  139.5246  165.7181 N.ar    1  UNL1       -0.2231
      9 C         141.2318  140.9433  166.1867 C.ar    1  UNL1        0.1696
     10 N         140.4652  141.9359  165.3641 N.ar    1  UNL1       -0.2076
     11 C         139.8319  141.5099  164.0728 C.ar    1  UNL1        0.1671
     12 C         141.8652  141.3693  167.4781 C.ar    1  UNL1        0.1025
     13 C         141.2501  140.9639  168.7847 C.ar    1  UNL1        0.2305
     14 N         141.8835  141.3899  170.0760 N.ar    1  UNL1       -0.1893
     15 C         143.1319  142.2213  170.0606 C.ar    1  UNL1        0.2012
     16 N         143.7469  142.6267  168.7539 N.ar    1  UNL1       -0.2281
     17 C         143.1136  142.2007  167.4627 C.ar    1  UNL1        0.0678
     18 C         143.7286  142.6061  166.1560 C.3     1  UNL1        0.0406
     19 C         144.1035  142.2813  164.7404 C.3     1  UNL1        0.0063
     20 C         144.4190  143.6332  165.3084 C.3     1  UNL1        0.0063
     21 O         140.0017  140.1324  168.8000 O.3     1  UNL1       -0.4560
     22 C         138.9431  140.3879  169.8317 C.3     1  UNL1        0.2542
     23 C         138.9318  143.9213  163.7186 C.3     1  UNL1        0.0900
     24 C         137.8361  144.2963  164.6721 C.3     1  UNL1        0.0246
     25 C         141.2892  145.0115  163.7828 C.3     1  UNL1        0.0020
     26 C         139.8940  144.9648  163.2339 C.3     1  UNL1        0.0227
     27 N         137.9319  140.2319  160.1989 N.pl3   1  UNL1       -0.3094
     28 H         137.0697  139.7567  160.2067 H       1  UNL1        0.1487
     29 C         138.6121  140.5300  158.8957 C.3     1  UNL1        0.1349
     30 C         139.5105  139.5062  158.2673 C.ar    1  UNL1        0.0789
     31 C         140.9077  139.3188  158.7799 C.ar    1  UNL1        0.0178
     32 C         141.8061  138.2950  158.1515 C.ar    1  UNL1        0.0212
     33 C         141.3073  137.4587  157.0105 C.ar    1  UNL1        0.1247
     34 C         139.9101  137.6462  156.4979 C.ar    1  UNL1        0.1168
     35 N         139.0117  138.6699  157.1263 N.ar    1  UNL1       -0.2451
     36 S         142.2056  136.4350  156.3821 S.O2    1  UNL1        0.0101
     37 O         141.0239  135.8225  155.6906 O.2     1  UNL1       -0.1686
     38 O         143.3873  137.0475  157.0737 O.2     1  UNL1       -0.1686
     39 C         143.1040  135.4112  155.7537 C.3     1  UNL1        0.1560
     40 C         142.7944  134.8805  154.3854 C.3     1  UNL1        0.0276
@<TRIPOS>BOND
     1    25    26    1
     2    26    23    1
     3    23    24    1
     4    23     1    1
     5     1     2   ar
     6     2     3    2
     7     2     4   ar
     8     4    27    1
     9    27    29    1
    10    29    30    1
    11    30    31   ar
    12    31    32   ar
    13    32    33   ar
    14    33    36    1
    15    36    37    2
    16    36    38    2
    17    36    39    1
    18    39    40    1
    19    33    34   ar
    20    34    35   ar
    21     4     5   ar
    22     5     6   ar
    23     6     7   ar
    24     7     8   ar
    25     8     9   ar
    26     9    12    1
    27    12    13   ar
    28    13    21    1
    29    21    22    1
    30    13    14   ar
    31    14    15   ar
    32    15    16   ar
    33    16    17   ar
    34    17    18    1
    35    18    19    1
    36    19    20    1
    37     9    10   ar
    38    10    11   ar
    39    11     1   ar
    40    35    30   ar
    41    11     6   ar
    42    17    12   ar
    43    20    18    1
    44    27    28    1
@<TRIPOS>MOLECULE
*****
 40 44 0 0 0
SMALL
GASTEIGER

@<TRIPOS>ATOM
      1 N         140.8397  143.1972  163.0572 N.ar    1  UNL1       -0.2789
      2 C         141.5685  143.5089  161.7838 C.ar    1  UNL1        0.2934
      3 O         140.9027  144.3311  160.7204 O.2     1  UNL1       -0.2639
      4 C         142.9632  142.9984  161.5736 C.ar    1  UNL1        0.1859
      5 N         143.6291  142.1762  162.6369 N.ar    1  UNL1       -0.2217
      6 C         142.9002  141.8644  163.9104 C.ar    1  UNL1        0.1361
      7 C         143.5661  141.0422  164.9736 C.ar    1  UNL1        0.1227
      8 N         142.8373  140.7305  166.2470 N.ar    1  UNL1       -0.2231
      9 C         141.4425  141.2411  166.4572 C.ar    1  UNL1        0.1696
     10 N         140.7767  142.0633  165.3939 N.ar    1  UNL1       -0.2076
     11 C         141.5055  142.3749  164.1205 C.ar    1  UNL1        0.1671
     12 C         140.7137  140.9293  167.7306 C.ar    1  UNL1        0.1025
     13 C         141.1744  141.5311  169.0250 C.ar    1  UNL1        0.2305
     14 N         140.4456  141.2194  170.2985 N.ar    1  UNL1       -0.1893
     15 C         139.2560  140.3058  170.2775 C.ar    1  UNL1        0.2012
     16 N         138.7953  139.7040  168.9830 N.ar    1  UNL1       -0.2281
     17 C         139.5242  140.0158  167.7096 C.ar    1  UNL1        0.0678
     18 C         139.0635  139.4140  166.4151 C.3     1  UNL1        0.0406
     19 C         139.1236  138.3096  165.4018 C.3     1  UNL1        0.0063
     20 C         138.2054  139.4760  165.1864 C.3     1  UNL1        0.0063
     21 O         142.3639  142.4447  169.0461 O.3     1  UNL1       -0.4560
     22 C         142.8814  142.9723  170.3514 C.3     1  UNL1        0.2542
     23 C         139.4450  143.7077  163.2673 C.3     1  UNL1        0.0900
     24 C         138.2762  142.9446  162.7179 C.3     1  UNL1        0.0246
     25 C         138.6300  144.9378  165.4057 C.3     1  UNL1        0.0020
     26 C         139.2190  144.9813  164.0268 C.3     1  UNL1        0.0227
     27 N         143.6921  143.3101  160.3001 N.pl3   1  UNL1       -0.3094
     28 H         144.2426  144.1236  160.2345 H       1  UNL1        0.1487
     29 C         143.5821  142.3823  159.1267 C.3     1  UNL1        0.1349
     30 C         144.7076  142.2844  158.1400 C.ar    1  UNL1        0.0789
     31 C         144.4987  141.5818  156.8312 C.ar    1  UNL1        0.0178
     32 C         145.6242  141.4839  155.8445 C.ar    1  UNL1        0.0212
     33 C         146.9586  142.0886  156.1665 C.ar    1  UNL1        0.1247
     34 C         147.1675  142.7913  157.4752 C.ar    1  UNL1        0.1168
     35 N         146.0420  142.8892  158.4619 N.ar    1  UNL1       -0.2451
     36 S         148.0841  141.9907  155.1798 S.O2    1  UNL1        0.0101
     37 O         147.0928  141.9086  154.0572 O.2     1  UNL1       -0.1686
     38 O         149.0755  142.0729  156.3025 O.2     1  UNL1       -0.1686
     39 C         149.2098  141.8928  154.1931 C.3     1  UNL1        0.1560
     40 C         149.5146  143.0480  153.2861 C.3     1  UNL1        0.0276
@<TRIPOS>BOND
     1    25    26    1
     2    26    23    1
     3    23    24    1
     4    23     1    1
     5     1     2   ar
     6     2     3    2
     7     2     4   ar
     8     4    27    1
     9    27    29    1
    10    29    30    1
    11    30    31   ar
    12    31    32   ar
    13    32    33   ar
    14    33    36    1
    15    36    37    2
    16    36    38    2
    17    36    39    1
    18    39    40    1
    19    33    34   ar
    20    34    35   ar
    21     4     5   ar
    22     5     6   ar
    23     6     7   ar
    24     7     8   ar
    25     8     9   ar
    26     9    12    1
    27    12    13   ar
    28    13    21    1
    29    21    22    1
    30    13    14   ar
    31    14    15   ar
    32    15    16   ar
    33    16    17   ar
    34    17    18    1
    35    18    19    1
    36    19    20    1
    37     9    10   ar
    38    10    11   ar
    39    11     1   ar
    40    35    30   ar
    41    11     6   ar
    42    17    12   ar
    43    20    18    1
    44    27    28    1
@<TRIPOS>MOLECULE
*****
 40 44 0 0 0
SMALL
GASTEIGER

@<TRIPOS>ATOM
      1 N         139.0288  142.3308  163.3363 N.ar    1  UNL1       -0.2789
      2 C         138.3363  141.8810  162.0841 C.ar    1  UNL1        0.2934
      3 O         137.6520  142.8843  161.2036 O.2     1  UNL1       -0.2639
      4 C         138.3281  140.4278  161.7123 C.ar    1  UNL1        0.1859
      5 N         139.0124  139.4245  162.5927 N.ar    1  UNL1       -0.2217
      6 C         139.7049  139.8744  163.8450 C.ar    1  UNL1        0.1361
      7 C         140.3891  138.8711  164.7253 C.ar    1  UNL1        0.1227
      8 N         141.0816  139.3209  165.9775 N.ar    1  UNL1       -0.2231
      9 C         141.0898  140.7741  166.3494 C.ar    1  UNL1        0.1696
     10 N         140.4056  141.7774  165.4690 N.ar    1  UNL1       -0.2076
     11 C         139.7131  141.3275  164.2168 C.ar    1  UNL1        0.1671
     12 C         141.7824  141.2239  167.6016 C.ar    1  UNL1        0.1025
     13 C         141.2475  140.8160  168.9423 C.ar    1  UNL1        0.2305
     14 N         141.9401  141.2659  170.1946 N.ar    1  UNL1       -0.1893
     15 C         143.1674  142.1236  170.1061 C.ar    1  UNL1        0.2012
     16 N         143.7022  142.5315  168.7653 N.ar    1  UNL1       -0.2281
     17 C         143.0097  142.0817  167.5131 C.ar    1  UNL1        0.0678
     18 C         143.5446  142.4896  166.1723 C.3     1  UNL1        0.0406
     19 C         144.0216  142.1240  164.7980 C.3     1  UNL1        0.0063
     20 C         143.9939  143.5618  165.2244 C.3     1  UNL1        0.0063
     21 O         140.0202  139.9583  169.0308 O.3     1  UNL1       -0.4560
     22 C         138.8627  140.3907  169.8813 C.3     1  UNL1        0.2542
     23 C         139.0370  143.7840  163.7081 C.3     1  UNL1        0.0900
     24 C         140.1099  144.6879  163.1772 C.3     1  UNL1        0.0246
     25 C         138.3547  145.0558  165.8684 C.3     1  UNL1        0.0020
     26 C         137.9723  144.3332  164.6107 C.3     1  UNL1        0.0227
     27 N         137.6356  139.9780  160.4600 N.pl3   1  UNL1       -0.3094
     28 H         136.6887  139.7101  160.4902 H       1  UNL1        0.1487
     29 C         138.3857  139.9363  159.1618 C.3     1  UNL1        0.1349
     30 C         138.4534  141.1588  158.2952 C.ar    1  UNL1        0.0789
     31 C         137.3470  141.4534  157.3261 C.ar    1  UNL1        0.0178
     32 C         137.4148  142.6759  156.4595 C.ar    1  UNL1        0.0212
     33 C         138.5889  143.6038  156.5621 C.ar    1  UNL1        0.1247
     34 C         139.6952  143.3092  157.5311 C.ar    1  UNL1        0.1168
     35 N         139.6275  142.0867  158.3978 N.ar    1  UNL1       -0.2451
     36 S         138.6566  144.8262  155.6955 S.O2    1  UNL1        0.0101
     37 O         137.1994  144.6779  155.3724 O.2     1  UNL1       -0.1686
     38 O         140.1139  144.9745  156.0186 O.2     1  UNL1       -0.1686
     39 C         138.7244  146.0488  154.8289 C.3     1  UNL1        0.1560
     40 C         138.8463  147.4062  155.4554 C.3     1  UNL1        0.0276
@<TRIPOS>BOND
     1    25    26    1
     2    26    23    1
     3    23    24    1
     4    23     1    1
     5     1     2   ar
     6     2     3    2
     7     2     4   ar
     8     4    27    1
     9    27    29    1
    10    29    30    1
    11    30    31   ar
    12    31    32   ar
    13    32    33   ar
    14    33    36    1
    15    36    37    2
    16    36    38    2
    17    36    39    1
    18    39    40    1
    19    33    34   ar
    20    34    35   ar
    21     4     5   ar
    22     5     6   ar
    23     6     7   ar
    24     7     8   ar
    25     8     9   ar
    26     9    12    1
    27    12    13   ar
    28    13    21    1
    29    21    22    1
    30    13    14   ar
    31    14    15   ar
    32    15    16   ar
    33    16    17   ar
    34    17    18    1
    35    18    19    1
    36    19    20    1
    37     9    10   ar
    38    10    11   ar
    39    11     1   ar
    40    35    30   ar
    41    11     6   ar
    42    17    12   ar
    43    20    18    1
    44    27    28    1
@<TRIPOS>MOLECULE
*****
 40 44 0 0 0
SMALL
GASTEIGER

@<TRIPOS>ATOM
      1 N         140.0209  143.9169  163.8955 N.ar    1  UNL1       -0.2789
      2 C         140.4161  144.4467  162.5490 C.ar    1  UNL1        0.2934
      3 O         139.4332  145.2350  161.7351 O.2     1  UNL1       -0.2639
      4 C         141.7943  144.1881  162.0164 C.ar    1  UNL1        0.1859
      5 N         142.7773  143.3998  162.8302 N.ar    1  UNL1       -0.2217
      6 C         142.3820  142.8701  164.1768 C.ar    1  UNL1        0.1361
      7 C         143.3650  142.0818  164.9906 C.ar    1  UNL1        0.1227
      8 N         142.9697  141.5520  166.3371 N.ar    1  UNL1       -0.2231
      9 C         141.5915  141.8106  166.8698 C.ar    1  UNL1        0.1696
     10 N         140.6085  142.5989  166.0559 N.ar    1  UNL1       -0.2076
     11 C         141.0038  143.1286  164.7094 C.ar    1  UNL1        0.1671
     12 C         141.1962  141.2808  168.2163 C.ar    1  UNL1        0.1025
     13 C         141.8599  141.8078  169.4540 C.ar    1  UNL1        0.2305
     14 N         141.4647  141.2780  170.8005 N.ar    1  UNL1       -0.1893
     15 C         140.4057  140.2212  170.9094 C.ar    1  UNL1        0.2012
     16 N         139.7420  139.6942  169.6717 N.ar    1  UNL1       -0.2281
     17 C         140.1373  140.2240  168.3252 C.ar    1  UNL1        0.0678
     18 C         139.4736  139.6970  167.0875 C.3     1  UNL1        0.0406
     19 C         139.5713  139.1035  165.7134 C.3     1  UNL1        0.0063
     20 C         138.2263  139.3778  166.3179 C.3     1  UNL1        0.0063
     21 O         142.9189  142.8645  169.3451 O.3     1  UNL1       -0.4560
     22 C         144.2744  142.6324  169.9441 C.3     1  UNL1        0.2542
     23 C         138.6427  144.1755  164.4281 C.3     1  UNL1        0.0900
     24 C         138.4503  145.0994  165.5941 C.3     1  UNL1        0.0246
     25 C         137.4911  142.0401  163.4985 C.3     1  UNL1        0.0020
     26 C         137.4568  143.5102  163.7948 C.3     1  UNL1        0.0227
     27 N         142.1896  144.7179  160.6698 N.pl3   1  UNL1       -0.3094
     28 H         142.2963  145.6872  160.5341 H       1  UNL1        0.1487
     29 C         142.4222  143.7710  159.5300 C.3     1  UNL1        0.1349
     30 C         141.2557  143.1415  158.8280 C.ar    1  UNL1        0.0789
     31 C         141.3822  141.7621  158.2522 C.ar    1  UNL1        0.0178
     32 C         140.2157  141.1326  157.5501 C.ar    1  UNL1        0.0212
     33 C         138.9227  141.8824  157.4238 C.ar    1  UNL1        0.1247
     34 C         138.7962  143.2617  157.9995 C.ar    1  UNL1        0.1168
     35 N         139.9627  143.8913  158.7016 N.ar    1  UNL1       -0.2451
     36 S         137.7562  141.2529  156.7217 S.O2    1  UNL1        0.0101
     37 O         137.4855  140.4066  157.9302 O.2     1  UNL1       -0.1686
     38 O         138.0268  142.0992  155.5132 O.2     1  UNL1       -0.1686
     39 C         136.5896  140.6234  156.0196 C.3     1  UNL1        0.1560
     40 C         136.0630  141.2268  154.7513 C.3     1  UNL1        0.0276
@<TRIPOS>BOND
     1    25    26    1
     2    26    23    1
     3    23    24    1
     4    23     1    1
     5     1     2   ar
     6     2     3    2
     7     2     4   ar
     8     4    27    1
     9    27    29    1
    10    29    30    1
    11    30    31   ar
    12    31    32   ar
    13    32    33   ar
    14    33    36    1
    15    36    37    2
    16    36    38    2
    17    36    39    1
    18    39    40    1
    19    33    34   ar
    20    34    35   ar
    21     4     5   ar
    22     5     6   ar
    23     6     7   ar
    24     7     8   ar
    25     8     9   ar
    26     9    12    1
    27    12    13   ar
    28    13    21    1
    29    21    22    1
    30    13    14   ar
    31    14    15   ar
    32    15    16   ar
    33    16    17   ar
    34    17    18    1
    35    18    19    1
    36    19    20    1
    37     9    10   ar
    38    10    11   ar
    39    11     1   ar
    40    35    30   ar
    41    11     6   ar
    42    17    12   ar
    43    20    18    1
    44    27    28    1
@<TRIPOS>MOLECULE
*****
 40 44 0 0 0
SMALL
GASTEIGER

@<TRIPOS>ATOM
      1 N         142.1259  142.8869  163.2248 N.ar    1  UNL1       -0.2789
      2 C         142.7756  142.9085  161.8730 C.ar    1  UNL1        0.2934
      3 O         142.6337  144.1141  160.9918 O.2     1  UNL1       -0.2639
      4 C         143.5673  141.7245  161.4024 C.ar    1  UNL1        0.1859
      5 N         143.7093  140.5190  162.2835 N.ar    1  UNL1       -0.2217
      6 C         143.0595  140.4974  163.6354 C.ar    1  UNL1        0.1361
      7 C         143.2014  139.2918  164.5166 C.ar    1  UNL1        0.1227
      8 N         142.5517  139.2703  165.8683 N.ar    1  UNL1       -0.2231
      9 C         141.7601  140.4542  166.3389 C.ar    1  UNL1        0.1696
     10 N         141.6181  141.6598  165.4578 N.ar    1  UNL1       -0.2076
     11 C         142.2678  141.6813  164.1060 C.ar    1  UNL1        0.1671
     12 C         141.1103  140.4326  167.6908 C.ar    1  UNL1        0.1025
     13 C         141.8689  140.9058  168.8952 C.ar    1  UNL1        0.2305
     14 N         141.2192  140.8841  170.2470 N.ar    1  UNL1       -0.1893
     15 C         139.8108  140.3894  170.3944 C.ar    1  UNL1        0.2012
     16 N         139.0522  139.9162  169.1899 N.ar    1  UNL1       -0.2281
     17 C         139.7019  139.9378  167.8382 C.ar    1  UNL1        0.0678
     18 C         138.9433  139.4647  166.6337 C.3     1  UNL1        0.0406
     19 C         138.3911  138.3436  165.8041 C.3     1  UNL1        0.0063
     20 C         138.1817  139.7662  165.3771 C.3     1  UNL1        0.0063
     21 O         143.2773  141.4005  168.7478 O.3     1  UNL1       -0.4560
     22 C         143.8314  142.3895  169.7302 C.3     1  UNL1        0.2542
     23 C         141.3342  144.0709  163.6954 C.3     1  UNL1        0.0900
     24 C         142.0332  145.3550  164.0310 C.3     1  UNL1        0.0246
     25 C         139.1360  144.7307  164.9129 C.3     1  UNL1        0.0020
     26 C         139.8437  143.9707  163.8304 C.3     1  UNL1        0.0227
     27 N         144.2171  141.7461  160.0505 N.pl3   1  UNL1       -0.3094
     28 H         145.1922  141.8584  159.9748 H       1  UNL1        0.1487
     29 C         143.3811  141.5967  158.8141 C.3     1  UNL1        0.1349
     30 C         143.2647  140.2595  158.1446 C.ar    1  UNL1        0.0789
     31 C         143.6139  140.1145  156.6930 C.ar    1  UNL1        0.0178
     32 C         143.4976  138.7773  156.0235 C.ar    1  UNL1        0.0212
     33 C         143.0320  137.5850  156.8056 C.ar    1  UNL1        0.1247
     34 C         142.6828  137.7299  158.2571 C.ar    1  UNL1        0.1168
     35 N         142.7991  139.0671  158.9267 N.ar    1  UNL1       -0.2451
     36 S         142.9156  136.2478  156.1361 S.O2    1  UNL1        0.0101
     37 O         141.4542  136.2070  156.4715 O.2     1  UNL1       -0.1686
     38 O         144.3770  136.2886  155.8006 O.2     1  UNL1       -0.1686
     39 C         142.7993  134.9105  155.4665 C.3     1  UNL1        0.1560
     40 C         141.4460  134.3328  155.1752 C.3     1  UNL1        0.0276
@<TRIPOS>BOND
     1    25    26    1
     2    26    23    1
     3    23    24    1
     4    23     1    1
     5     1     2   ar
     6     2     3    2
     7     2     4   ar
     8     4    27    1
     9    27    29    1
    10    29    30    1
    11    30    31   ar
    12    31    32   ar
    13    32    33   ar
    14    33    36    1
    15    36    37    2
    16    36    38    2
    17    36    39    1
    18    39    40    1
    19    33    34   ar
    20    34    35   ar
    21     4     5   ar
    22     5     6   ar
    23     6     7   ar
    24     7     8   ar
    25     8     9   ar
    26     9    12    1
    27    12    13   ar
    28    13    21    1
    29    21    22    1
    30    13    14   ar
    31    14    15   ar
    32    15    16   ar
    33    16    17   ar
    34    17    18    1
    35    18    19    1
    36    19    20    1
    37     9    10   ar
    38    10    11   ar
    39    11     1   ar
    40    35    30   ar
    41    11     6   ar
    42    17    12   ar
    43    20    18    1
    44    27    28    1
@<TRIPOS>MOLECULE
*****
 40 44 0 0 0
SMALL
GASTEIGER

@<TRIPOS>ATOM
      1 N         143.0772  140.9358  163.4751 N.ar    1  UNL1       -0.2789
      2 C         143.4232  141.5145  162.1352 C.ar    1  UNL1        0.2934
      3 O         144.3183  140.7571  161.1996 O.2     1  UNL1       -0.2639
      4 C         142.8741  142.8505  161.7308 C.ar    1  UNL1        0.1859
      5 N         141.9791  143.6079  162.6663 N.ar    1  UNL1       -0.2217
      6 C         141.6331  143.0292  164.0063 C.ar    1  UNL1        0.1361
      7 C         140.7380  143.7866  164.9418 C.ar    1  UNL1        0.1227
      8 N         140.3920  143.2079  166.2817 N.ar    1  UNL1       -0.2231
      9 C         140.9411  141.8719  166.6861 C.ar    1  UNL1        0.1696
     10 N         141.8362  141.1145  165.7506 N.ar    1  UNL1       -0.2076
     11 C         142.1821  141.6932  164.4107 C.ar    1  UNL1        0.1671
     12 C         140.5951  141.2932  168.0261 C.ar    1  UNL1        0.1025
     13 C         141.3094  141.7698  169.2560 C.ar    1  UNL1        0.2305
     14 N         140.9634  141.1912  170.5960 N.ar    1  UNL1       -0.1893
     15 C         139.9030  140.1359  170.7060 C.ar    1  UNL1        0.2012
     16 N         139.1887  139.6593  169.4761 N.ar    1  UNL1       -0.2281
     17 C         139.5347  140.2380  168.1362 C.ar    1  UNL1        0.0678
     18 C         138.8204  139.7614  166.9062 C.3     1  UNL1        0.0406
     19 C         138.0415  138.7017  166.1849 C.3     1  UNL1        0.0063
     20 C         138.3621  139.9957  165.4974 C.3     1  UNL1        0.0063
     21 O         142.3698  142.8251  169.1459 O.3     1  UNL1       -0.4560
     22 C         143.8025  142.4807  169.4266 C.3     1  UNL1        0.2542
     23 C         143.6263  139.5998  163.8795 C.3     1  UNL1        0.0900
     24 C         144.9893  139.5053  164.4986 C.3     1  UNL1        0.0246
     25 C         141.9779  137.8059  164.7821 C.3     1  UNL1        0.0020
     26 C         142.8124  138.3583  163.6647 C.3     1  UNL1        0.0227
     27 N         143.2201  143.4292  160.3908 N.pl3   1  UNL1       -0.3094
     28 H         144.0047  144.0162  160.2959 H       1  UNL1        0.1487
     29 C         142.3707  143.1134  159.1955 C.3     1  UNL1        0.1349
     30 C         142.4442  141.7564  158.5607 C.ar    1  UNL1        0.0789
     31 C         143.3989  141.5077  157.4307 C.ar    1  UNL1        0.0178
     32 C         143.4724  140.1507  156.7958 C.ar    1  UNL1        0.0212
     33 C         142.5913  139.0424  157.2909 C.ar    1  UNL1        0.1247
     34 C         141.6367  139.2910  158.4208 C.ar    1  UNL1        0.1168
     35 N         141.5631  140.6480  159.0557 N.ar    1  UNL1       -0.2451
     36 S         142.6648  137.6854  156.6560 S.O2    1  UNL1        0.0101
     37 O         144.0486  137.9905  156.1641 O.2     1  UNL1       -0.1686
     38 O         141.2811  137.3802  157.1479 O.2     1  UNL1       -0.1686
     39 C         142.7383  136.3283  156.0211 C.3     1  UNL1        0.1560
     40 C         144.0545  135.7981  155.5347 C.3     1  UNL1        0.0276
@<TRIPOS>BOND
     1    25    26    1
     2    26    23    1
     3    23    24    1
     4    23     1    1
     5     1     2   ar
     6     2     3    2
     7     2     4   ar
     8     4    27    1
     9    27    29    1
    10    29    30    1
    11    30    31   ar
    12    31    32   ar
    13    32    33   ar
    14    33    36    1
    15    36    37    2
    16    36    38    2
    17    36    39    1
    18    39    40    1
    19    33    34   ar
    20    34    35   ar
    21     4     5   ar
    22     5     6   ar
    23     6     7   ar
    24     7     8   ar
    25     8     9   ar
    26     9    12    1
    27    12    13   ar
    28    13    21    1
    29    21    22    1
    30    13    14   ar
    31    14    15   ar
    32    15    16   ar
    33    16    17   ar
    34    17    18    1
    35    18    19    1
    36    19    20    1
    37     9    10   ar
    38    10    11   ar
    39    11     1   ar
    40    35    30   ar
    41    11     6   ar
    42    17    12   ar
    43    20    18    1
    44    27    28    1
