@<TRIPOS>MOLECULE
*****
 45 49 0 0 0
SMALL
GASTEIGER

@<TRIPOS>ATOM
      1 C         140.0865  138.6711  159.7202 C.ar    1  UNL1        0.0846
      2 C         141.1655  138.3210  160.7016 C.ar    1  UNL1        0.0174
      3 C         141.1001  138.8434  162.1062 C.ar    1  UNL1       -0.0031
      4 C         139.9556  139.7160  162.5293 C.ar    1  UNL1       -0.0218
      5 C         138.8768  140.0661  161.5478 C.ar    1  UNL1        0.0091
      6 C         138.9421  139.5437  160.1433 C.ar    1  UNL1        0.1477
      7 C         137.6579  140.9141  161.7609 C.3     1  UNL1        0.0292
      8 C         137.2170  141.6215  163.0081 C.3     1  UNL1        0.0062
      9 C         137.8861  141.6554  164.3501 C.3     1  UNL1        0.0166
     10 C         139.1612  140.9905  164.7766 C.3     1  UNL1        0.0619
     11 C         140.0823  140.1274  163.9662 C.3     1  UNL1        0.0421
     12 N         139.5693  141.2189  166.2017 N.3     1  UNL1       -0.2713
     13 C         139.3510  140.1448  167.2258 C.3     1  UNL1        0.0896
     14 C         139.7590  140.3732  168.6511 C.3     1  UNL1        0.0897
     15 N         140.3854  141.6758  169.0523 N.3     1  UNL1       -0.2682
     16 C         140.6037  142.7499  168.0283 C.3     1  UNL1        0.0897
     17 C         140.1956  142.5215  166.6030 C.3     1  UNL1        0.0896
     18 C         140.7935  141.9042  170.4775 C.3     1  UNL1        0.1043
     19 C         142.1930  141.5902  170.9165 C.3     1  UNL1        0.1544
     20 O         142.4315  140.5668  171.9869 O.3     1  UNL1       -0.3805
     21 H         142.0658  140.8861  172.8267 H       1  UNL1        0.2105
     22 N         140.1520  138.1487  158.3156 N.pl3   1  UNL1       -0.2801
     23 H         139.3776  137.6803  157.9280 H       1  UNL1        0.1552
     24 C         143.2790  137.3574  156.0035 C.ar    1  UNL1        0.1472
     25 N         142.0336  137.1663  156.8174 N.ar    1  UNL1       -0.1976
     26 C         141.3974  138.3398  157.5017 C.ar    1  UNL1        0.2220
     27 N         142.0066  139.7044  157.3719 N.ar    1  UNL1       -0.2110
     28 C         143.2519  139.8955  156.5581 C.ar    1  UNL1        0.1160
     29 C         143.8882  138.7220  155.8738 C.ar    1  UNL1        0.1085
     30 CL        145.1336  138.9131  155.0599 Cl      1  UNL1       -0.0777
     31 N         143.9152  136.1839  155.3193 N.pl3   1  UNL1       -0.2970
     32 H         144.8946  136.1368  155.2315 H       1  UNL1        0.1536
     33 C         142.9906  133.7609  155.4761 C.ar    1  UNL1        0.0668
     34 C         142.1344  132.6591  154.9257 C.ar    1  UNL1        0.0058
     35 C         141.3466  132.8784  153.6682 C.ar    1  UNL1        0.0002
     36 C         141.4150  134.1994  152.9610 C.ar    1  UNL1        0.0013
     37 C         142.2712  135.3012  153.5114 C.ar    1  UNL1        0.0148
     38 C         143.0590  135.0820  154.7689 C.ar    1  UNL1        0.0537
     39 C         145.6397  132.2757  158.0308 C.3     1  UNL1        0.1109
     40 N         144.8519  132.4950  156.7732 N.am    1  UNL1       -0.2991
     41 C         143.7783  133.5417  156.7336 C.2     1  UNL1        0.2471
     42 O         143.4923  134.3692  157.9516 O.2     1  UNL1       -0.2701
     43 H         145.0396  131.9519  155.9738 H       1  UNL1        0.1498
     44 O         137.8632  139.8939  159.1618 O.3     1  UNL1       -0.4705
     45 C         138.0967  140.9691  158.1425 C.3     1  UNL1        0.2525
@<TRIPOS>BOND
     1    39    40    1
     2    40    41   am
     3    41    42    2
     4    41    33    1
     5    33    34   ar
     6    34    35   ar
     7    35    36   ar
     8    36    37   ar
     9    37    38   ar
    10    38    31    1
    11    31    24    1
    12    24    25   ar
    13    25    26   ar
    14    26    22    1
    15    22     1    1
    16     1     2   ar
    17     2     3   ar
    18     3     4   ar
    19     4     5   ar
    20     5     6   ar
    21     6    44    1
    22    44    45    1
    23     5     7    1
    24     7     8    1
    25     8     9    1
    26     9    10    1
    27    10    12    1
    28    12    13    1
    29    13    14    1
    30    14    15    1
    31    15    18    1
    32    18    19    1
    33    19    20    1
    34    15    16    1
    35    16    17    1
    36    10    11    1
    37    26    27   ar
    38    27    28   ar
    39    28    29   ar
    40    29    30    1
    41    38    33   ar
    42    29    24   ar
    43     6     1   ar
    44    17    12    1
    45    11     4    1
    46    40    43    1
    47    31    32    1
    48    22    23    1
    49    20    21    1
@<TRIPOS>MOLECULE
*****
 45 49 0 0 0
SMALL
GASTEIGER

@<TRIPOS>ATOM
      1 C         140.4409  142.2539  158.9451 C.ar    1  UNL1        0.0846
      2 C         141.2644  143.4713  159.2447 C.ar    1  UNL1        0.0174
      3 C         141.0258  144.7434  158.4865 C.ar    1  UNL1       -0.0031
      4 C         139.9637  144.7981  157.4287 C.ar    1  UNL1       -0.0218
      5 C         139.1403  143.5807  157.1291 C.ar    1  UNL1        0.0091
      6 C         139.3788  142.3086  157.8873 C.ar    1  UNL1        0.1477
      7 C         138.0396  143.4205  156.1226 C.3     1  UNL1        0.0292
      8 C         137.4907  144.4382  155.1670 C.3     1  UNL1        0.0062
      9 C         137.9069  145.8673  154.9821 C.3     1  UNL1        0.0166
     10 C         138.9746  146.6319  155.7069 C.3     1  UNL1        0.0619
     11 C         139.8900  146.1560  156.7958 C.3     1  UNL1        0.0421
     12 N         139.1502  148.0613  155.2875 N.3     1  UNL1       -0.2713
     13 C         138.5019  149.1597  156.0770 C.3     1  UNL1        0.0896
     14 C         138.6775  150.5891  155.6574 C.3     1  UNL1        0.0897
     15 N         139.5015  150.9202  154.4485 N.3     1  UNL1       -0.2682
     16 C         140.1498  149.8218  153.6590 C.3     1  UNL1        0.0897
     17 C         139.9742  148.3923  154.0785 C.3     1  UNL1        0.0896
     18 C         139.6771  152.3495  154.0290 C.3     1  UNL1        0.1043
     19 C         138.5083  153.2893  154.0599 C.3     1  UNL1        0.1544
     20 O         137.4407  153.1931  153.0107 O.3     1  UNL1       -0.3805
     21 H         137.8144  153.4273  152.1468 H       1  UNL1        0.2105
     22 N         140.6796  140.9819  159.7033 N.pl3   1  UNL1       -0.2801
     23 H         141.2594  140.2832  159.3226 H       1  UNL1        0.1552
     24 C         139.8057  141.4067  163.5512 C.ar    1  UNL1        0.1472
     25 N         140.4505  141.6142  162.2129 N.ar    1  UNL1       -0.1976
     26 C         140.0347  140.7743  161.0417 C.ar    1  UNL1        0.2220
     27 N         138.9741  139.7268  161.2089 N.ar    1  UNL1       -0.2110
     28 C         138.3293  139.5192  162.5471 C.ar    1  UNL1        0.1160
     29 C         138.7451  140.3592  163.7183 C.ar    1  UNL1        0.1085
     30 CL        138.1002  140.1516  165.0567 Cl      1  UNL1       -0.0777
     31 N         140.2215  142.2466  164.7223 N.pl3   1  UNL1       -0.2970
     32 H         139.6022  142.3820  165.4756 H       1  UNL1        0.1536
     33 C         141.7840  144.2420  164.1504 C.ar    1  UNL1        0.0668
     34 C         143.1434  144.8756  164.1738 C.ar    1  UNL1        0.0058
     35 C         144.2997  144.1475  164.7926 C.ar    1  UNL1        0.0002
     36 C         144.0967  142.7858  165.3880 C.ar    1  UNL1        0.0013
     37 C         142.7372  142.1522  165.3646 C.ar    1  UNL1        0.0148
     38 C         141.5809  142.8802  164.7458 C.ar    1  UNL1        0.0537
     39 C         139.6434  146.3985  161.5975 C.3     1  UNL1        0.1109
     40 N         140.7997  145.6704  162.2164 N.am    1  UNL1       -0.2991
     41 C         140.6278  144.9701  163.5316 C.2     1  UNL1        0.2471
     42 O         139.2996  144.9978  164.2281 O.2     1  UNL1       -0.2701
     43 H         141.6714  145.6522  161.7592 H       1  UNL1        0.1498
     44 O         138.5553  141.0912  157.5877 O.3     1  UNL1       -0.4705
     45 C         139.1123  140.0049  156.7161 C.3     1  UNL1        0.2525
@<TRIPOS>BOND
     1    39    40    1
     2    40    41   am
     3    41    42    2
     4    41    33    1
     5    33    34   ar
     6    34    35   ar
     7    35    36   ar
     8    36    37   ar
     9    37    38   ar
    10    38    31    1
    11    31    24    1
    12    24    25   ar
    13    25    26   ar
    14    26    22    1
    15    22     1    1
    16     1     2   ar
    17     2     3   ar
    18     3     4   ar
    19     4     5   ar
    20     5     6   ar
    21     6    44    1
    22    44    45    1
    23     5     7    1
    24     7     8    1
    25     8     9    1
    26     9    10    1
    27    10    12    1
    28    12    13    1
    29    13    14    1
    30    14    15    1
    31    15    18    1
    32    18    19    1
    33    19    20    1
    34    15    16    1
    35    16    17    1
    36    10    11    1
    37    26    27   ar
    38    27    28   ar
    39    28    29   ar
    40    29    30    1
    41    38    33   ar
    42    29    24   ar
    43     6     1   ar
    44    17    12    1
    45    11     4    1
    46    40    43    1
    47    31    32    1
    48    22    23    1
    49    20    21    1
@<TRIPOS>MOLECULE
*****
 45 49 0 0 0
SMALL
GASTEIGER

@<TRIPOS>ATOM
      1 C         144.3329  141.7794  163.7455 C.ar    1  UNL1        0.0846
      2 C         144.2340  140.2834  163.6966 C.ar    1  UNL1        0.0174
      3 C         144.0267  139.5880  162.3837 C.ar    1  UNL1       -0.0031
      4 C         143.9183  140.3887  161.1199 C.ar    1  UNL1       -0.0218
      5 C         144.0172  141.8845  161.1689 C.ar    1  UNL1        0.0091
      6 C         144.2245  142.5799  162.4816 C.ar    1  UNL1        0.1477
      7 C         143.9363  142.8648  160.0363 C.3     1  UNL1        0.0292
      8 C         143.7366  142.5910  158.5750 C.3     1  UNL1        0.0062
      9 C         143.5684  141.2697  157.8855 C.3     1  UNL1        0.0166
     10 C         143.5584  139.8955  158.4868 C.3     1  UNL1        0.0619
     11 C         143.7141  139.5034  159.9263 C.3     1  UNL1        0.0421
     12 N         143.3674  138.7638  157.5211 N.3     1  UNL1       -0.2713
     13 C         143.8455  138.8971  156.1055 C.3     1  UNL1        0.0896
     14 C         143.6545  137.7653  155.1397 C.3     1  UNL1        0.0897
     15 N         142.9854  136.5004  155.5894 N.3     1  UNL1       -0.2682
     16 C         142.5073  136.3671  157.0049 C.3     1  UNL1        0.0897
     17 C         142.6983  137.4989  157.9708 C.3     1  UNL1        0.0896
     18 C         142.7945  135.3687  154.6236 C.3     1  UNL1        0.1043
     19 C         141.6239  134.4429  154.7750 C.3     1  UNL1        0.1544
     20 O         141.7206  133.2542  155.6846 O.3     1  UNL1       -0.3805
     21 H         142.3761  132.6311  155.3338 H       1  UNL1        0.2105
     22 N         144.5403  142.4747  165.0584 N.pl3   1  UNL1       -0.2801
     23 H         145.4088  142.8903  165.2635 H       1  UNL1        0.1552
     24 C         140.8923  142.7694  166.5933 C.ar    1  UNL1        0.1472
     25 N         142.0084  142.7074  165.5931 N.ar    1  UNL1       -0.1976
     26 C         143.4242  142.5367  166.0586 C.ar    1  UNL1        0.2220
     27 N         143.7237  142.4281  167.5244 N.ar    1  UNL1       -0.2110
     28 C         142.6077  142.4901  168.5246 C.ar    1  UNL1        0.1160
     29 C         141.1919  142.6608  168.0591 C.ar    1  UNL1        0.1085
     30 CL        140.0758  142.7228  169.0594 Cl      1  UNL1       -0.0777
     31 N         139.4767  142.9401  166.1278 N.pl3   1  UNL1       -0.2970
     32 H         138.8974  143.6145  166.5505 H       1  UNL1        0.1536
     33 C         138.6763  142.6830  163.6694 C.ar    1  UNL1        0.0668
     34 C         138.1433  141.8260  162.5596 C.ar    1  UNL1        0.0058
     35 C         137.8778  140.3691  162.7985 C.ar    1  UNL1        0.0002
     36 C         138.1452  139.7692  164.1470 C.ar    1  UNL1        0.0013
     37 C         138.6781  140.6262  165.2568 C.ar    1  UNL1        0.0148
     38 C         138.9437  142.0831  165.0180 C.ar    1  UNL1        0.0537
     39 C         139.5832  146.0757  161.8209 C.3     1  UNL1        0.1109
     40 N         139.3177  144.6188  162.0598 N.am    1  UNL1       -0.2991
     41 C         138.9419  144.1398  163.4306 C.2     1  UNL1        0.2471
     42 O         138.8316  145.1177  164.5627 O.2     1  UNL1       -0.2701
     43 H         139.3901  143.9770  161.3167 H       1  UNL1        0.1498
     44 O         144.3234  144.0759  162.5306 O.3     1  UNL1       -0.4705
     45 C         143.1468  144.8910  162.9790 C.3     1  UNL1        0.2525
@<TRIPOS>BOND
     1    39    40    1
     2    40    41   am
     3    41    42    2
     4    41    33    1
     5    33    34   ar
     6    34    35   ar
     7    35    36   ar
     8    36    37   ar
     9    37    38   ar
    10    38    31    1
    11    31    24    1
    12    24    25   ar
    13    25    26   ar
    14    26    22    1
    15    22     1    1
    16     1     2   ar
    17     2     3   ar
    18     3     4   ar
    19     4     5   ar
    20     5     6   ar
    21     6    44    1
    22    44    45    1
    23     5     7    1
    24     7     8    1
    25     8     9    1
    26     9    10    1
    27    10    12    1
    28    12    13    1
    29    13    14    1
    30    14    15    1
    31    15    18    1
    32    18    19    1
    33    19    20    1
    34    15    16    1
    35    16    17    1
    36    10    11    1
    37    26    27   ar
    38    27    28   ar
    39    28    29   ar
    40    29    30    1
    41    38    33   ar
    42    29    24   ar
    43     6     1   ar
    44    17    12    1
    45    11     4    1
    46    40    43    1
    47    31    32    1
    48    22    23    1
    49    20    21    1
@<TRIPOS>MOLECULE
*****
 45 49 0 0 0
SMALL
GASTEIGER

@<TRIPOS>ATOM
      1 C         142.9097  141.3361  160.6979 C.ar    1  UNL1        0.0846
      2 C         143.3580  140.0485  161.3233 C.ar    1  UNL1        0.0174
      3 C         143.3107  138.7744  160.5329 C.ar    1  UNL1       -0.0031
      4 C         142.8151  138.7881  159.1171 C.ar    1  UNL1       -0.0218
      5 C         142.3669  140.0757  158.4919 C.ar    1  UNL1        0.0091
      6 C         142.4141  141.3497  159.2821 C.ar    1  UNL1        0.1477
      7 C         141.8423  140.3096  157.1061 C.3     1  UNL1        0.0292
      8 C         141.6366  139.3136  156.0035 C.3     1  UNL1        0.0062
      9 C         141.9045  137.8378  156.0143 C.3     1  UNL1        0.0166
     10 C         142.4443  136.9934  157.1304 C.3     1  UNL1        0.0619
     11 C         142.8496  137.4163  158.5113 C.3     1  UNL1        0.0421
     12 N         142.5994  135.5330  156.8252 N.3     1  UNL1       -0.2713
     13 C         143.5500  134.6957  157.6286 C.3     1  UNL1        0.0896
     14 C         143.7050  133.2352  157.3233 C.3     1  UNL1        0.0897
     15 N         142.9096  132.6121  156.2147 N.3     1  UNL1       -0.2682
     16 C         141.9590  133.4494  155.4114 C.3     1  UNL1        0.0897
     17 C         141.8039  134.9099  155.7166 C.3     1  UNL1        0.0896
     18 C         143.0646  131.1518  155.9096 C.3     1  UNL1        0.1043
     19 C         143.9781  130.7092  154.8051 C.3     1  UNL1        0.1544
     20 O         145.2245  129.9390  155.1260 O.3     1  UNL1       -0.3805
     21 H         145.8348  130.5047  155.6245 H       1  UNL1        0.2105
     22 N         142.9570  142.6101  161.4883 N.pl3   1  UNL1       -0.2801
     23 H         143.7762  143.1560  161.4935 H       1  UNL1        0.1552
     24 C         139.3897  142.5660  163.2268 C.ar    1  UNL1        0.1472
     25 N         140.5906  142.1239  162.4444 N.ar    1  UNL1       -0.1976
     26 C         141.7560  143.0522  162.2707 C.ar    1  UNL1        0.2220
     27 N         141.7204  144.4227  162.8796 N.ar    1  UNL1       -0.2110
     28 C         140.5195  144.8648  163.6620 C.ar    1  UNL1        0.1160
     29 C         139.3541  143.9364  163.8356 C.ar    1  UNL1        0.1085
     30 CL        138.1531  144.3786  164.6181 Cl      1  UNL1       -0.0777
     31 N         138.2243  141.6376  163.4004 N.pl3   1  UNL1       -0.2970
     32 H         137.3230  141.9221  163.1249 H       1  UNL1        0.1536
     33 C         138.5255  139.0745  163.1003 C.ar    1  UNL1        0.0668
     34 C         138.7335  137.7127  163.6937 C.ar    1  UNL1        0.0058
     35 C         138.8484  137.5521  165.1807 C.ar    1  UNL1        0.0002
     36 C         138.7552  138.7532  166.0743 C.ar    1  UNL1        0.0013
     37 C         138.5472  140.1151  165.4809 C.ar    1  UNL1        0.0148
     38 C         138.4323  140.2758  163.9939 C.ar    1  UNL1        0.0537
     39 C         139.2429  138.6689  159.2182 C.3     1  UNL1        0.1109
     40 N         139.3577  138.5083  160.7051 N.am    1  UNL1       -0.2991
     41 C         138.4107  139.2352  161.6134 C.2     1  UNL1        0.2471
     42 O         137.3489  140.1226  161.0347 O.2     1  UNL1       -0.2701
     43 H         140.0546  137.9258  161.0850 H       1  UNL1        0.1498
     44 O         141.9659  142.6373  158.6568 O.3     1  UNL1       -0.4705
     45 C         142.9803  143.6072  158.1277 C.3     1  UNL1        0.2525
@<TRIPOS>BOND
     1    39    40    1
     2    40    41   am
     3    41    42    2
     4    41    33    1
     5    33    34   ar
     6    34    35   ar
     7    35    36   ar
     8    36    37   ar
     9    37    38   ar
    10    38    31    1
    11    31    24    1
    12    24    25   ar
    13    25    26   ar
    14    26    22    1
    15    22     1    1
    16     1     2   ar
    17     2     3   ar
    18     3     4   ar
    19     4     5   ar
    20     5     6   ar
    21     6    44    1
    22    44    45    1
    23     5     7    1
    24     7     8    1
    25     8     9    1
    26     9    10    1
    27    10    12    1
    28    12    13    1
    29    13    14    1
    30    14    15    1
    31    15    18    1
    32    18    19    1
    33    19    20    1
    34    15    16    1
    35    16    17    1
    36    10    11    1
    37    26    27   ar
    38    27    28   ar
    39    28    29   ar
    40    29    30    1
    41    38    33   ar
    42    29    24   ar
    43     6     1   ar
    44    17    12    1
    45    11     4    1
    46    40    43    1
    47    31    32    1
    48    22    23    1
    49    20    21    1
@<TRIPOS>MOLECULE
*****
 45 49 0 0 0
SMALL
GASTEIGER

@<TRIPOS>ATOM
      1 C         144.2248  141.8967  163.4974 C.ar    1  UNL1        0.0846
      2 C         144.2916  140.3985  163.4661 C.ar    1  UNL1        0.0174
      3 C         144.0958  139.6659  162.1718 C.ar    1  UNL1       -0.0031
      4 C         143.8332  140.4316  160.9089 C.ar    1  UNL1       -0.0218
      5 C         143.7665  141.9297  160.9403 C.ar    1  UNL1        0.0091
      6 C         143.9623  142.6623  162.2345 C.ar    1  UNL1        0.1477
      7 C         143.5180  142.8788  159.8056 C.3     1  UNL1        0.0292
      8 C         143.2749  142.5640  158.3592 C.3     1  UNL1        0.0062
      9 C         143.2202  141.2225  157.6905 C.3     1  UNL1        0.0166
     10 C         143.3952  139.8644  158.3028 C.3     1  UNL1        0.0619
     11 C         143.6680  139.5124  159.7351 C.3     1  UNL1        0.0421
     12 N         143.2824  138.7050  157.3578 N.3     1  UNL1       -0.2713
     13 C         143.7583  138.8424  155.9419 C.3     1  UNL1        0.0896
     14 C         143.6455  137.6829  154.9969 C.3     1  UNL1        0.0897
     15 N         143.0567  136.3861  155.4678 N.3     1  UNL1       -0.2682
     16 C         142.5808  136.2487  156.8837 C.3     1  UNL1        0.0897
     17 C         142.6936  137.4082  157.8287 C.3     1  UNL1        0.0896
     18 C         142.9439  135.2267  154.5228 C.3     1  UNL1        0.1043
     19 C         141.7447  134.3274  154.5788 C.3     1  UNL1        0.1544
     20 O         141.7298  133.1544  155.5135 O.3     1  UNL1       -0.3805
     21 H         142.4017  132.5119  155.2366 H       1  UNL1        0.2105
     22 N         144.4206  142.6292  164.7917 N.pl3   1  UNL1       -0.2801
     23 H         145.2222  143.1846  164.9266 H       1  UNL1        0.1552
     24 C         140.9362  142.1250  166.6234 C.ar    1  UNL1        0.1472
     25 N         141.9618  142.2387  165.5347 N.ar    1  UNL1       -0.1976
     26 C         143.3950  142.5154  165.8803 C.ar    1  UNL1        0.2220
     27 N         143.8026  142.6784  167.3148 N.ar    1  UNL1       -0.2110
     28 C         142.7770  142.5647  168.4034 C.ar    1  UNL1        0.1160
     29 C         141.3438  142.2879  168.0577 C.ar    1  UNL1        0.1085
     30 CL        140.3182  142.1742  169.1464 Cl      1  UNL1       -0.0777
     31 N         139.5031  141.8482  166.2776 N.pl3   1  UNL1       -0.2970
     32 H         138.9162  141.4033  166.9309 H       1  UNL1        0.1536
     33 C         138.9230  141.2530  163.8160 C.ar    1  UNL1        0.0668
     34 C         138.3841  141.6543  162.4749 C.ar    1  UNL1        0.0058
     35 C         137.8865  143.0521  162.2543 C.ar    1  UNL1        0.0002
     36 C         137.9277  144.0486  163.3746 C.ar    1  UNL1        0.0013
     37 C         138.4665  143.6473  164.7158 C.ar    1  UNL1        0.0148
     38 C         138.9642  142.2495  164.9365 C.ar    1  UNL1        0.0537
     39 C         141.3919  138.1772  164.2563 C.3     1  UNL1        0.1109
     40 N         140.8942  139.5749  164.0356 N.am    1  UNL1       -0.2991
     41 C         139.4207  139.8554  164.0367 C.2     1  UNL1        0.2471
     42 O         138.4447  138.7380  164.2585 O.2     1  UNL1       -0.2701
     43 H         141.5347  140.3082  163.8900 H       1  UNL1        0.1498
     44 O         143.8956  144.1605  162.2658 O.3     1  UNL1       -0.4705
     45 C         142.6730  144.8458  162.8002 C.3     1  UNL1        0.2525
@<TRIPOS>BOND
     1    39    40    1
     2    40    41   am
     3    41    42    2
     4    41    33    1
     5    33    34   ar
     6    34    35   ar
     7    35    36   ar
     8    36    37   ar
     9    37    38   ar
    10    38    31    1
    11    31    24    1
    12    24    25   ar
    13    25    26   ar
    14    26    22    1
    15    22     1    1
    16     1     2   ar
    17     2     3   ar
    18     3     4   ar
    19     4     5   ar
    20     5     6   ar
    21     6    44    1
    22    44    45    1
    23     5     7    1
    24     7     8    1
    25     8     9    1
    26     9    10    1
    27    10    12    1
    28    12    13    1
    29    13    14    1
    30    14    15    1
    31    15    18    1
    32    18    19    1
    33    19    20    1
    34    15    16    1
    35    16    17    1
    36    10    11    1
    37    26    27   ar
    38    27    28   ar
    39    28    29   ar
    40    29    30    1
    41    38    33   ar
    42    29    24   ar
    43     6     1   ar
    44    17    12    1
    45    11     4    1
    46    40    43    1
    47    31    32    1
    48    22    23    1
    49    20    21    1
@<TRIPOS>MOLECULE
*****
 45 49 0 0 0
SMALL
GASTEIGER

@<TRIPOS>ATOM
      1 C         142.6925  138.6239  159.6801 C.ar    1  UNL1        0.0846
      2 C         143.7307  138.8995  160.7271 C.ar    1  UNL1        0.0174
      3 C         143.3193  139.1092  162.1544 C.ar    1  UNL1       -0.0031
      4 C         141.8697  139.0432  162.5345 C.ar    1  UNL1       -0.0218
      5 C         140.8317  138.7677  161.4875 C.ar    1  UNL1        0.0091
      6 C         141.2429  138.5580  160.0603 C.ar    1  UNL1        0.1477
      7 C         139.3443  138.6607  161.6505 C.3     1  UNL1        0.0292
      8 C         138.5279  138.8029  162.9008 C.3     1  UNL1        0.0062
      9 C         138.9971  139.0872  164.2968 C.3     1  UNL1        0.0166
     10 C         140.3986  139.2995  164.7874 C.3     1  UNL1        0.0619
     11 C         141.6771  139.2799  164.0031 C.3     1  UNL1        0.0421
     12 N         140.5404  139.5667  166.2566 N.3     1  UNL1       -0.2713
     13 C         141.9002  139.5735  166.8899 C.3     1  UNL1        0.0896
     14 C         142.0420  139.8407  168.3591 C.3     1  UNL1        0.0897
     15 N         140.8240  140.1011  169.1950 N.3     1  UNL1       -0.2682
     16 C         139.4643  140.0944  168.5618 C.3     1  UNL1        0.0897
     17 C         139.3225  139.8271  167.0925 C.3     1  UNL1        0.0896
     18 C         140.9658  140.3683  170.6642 C.3     1  UNL1        0.1043
     19 C         141.0414  141.7799  171.1659 C.3     1  UNL1        0.1544
     20 O         142.2267  142.2283  171.9682 O.3     1  UNL1       -0.3805
     21 H         142.2425  141.7542  172.8143 H       1  UNL1        0.2105
     22 N         143.1039  138.4143  158.2530 N.pl3   1  UNL1       -0.2801
     23 H         143.0134  137.5252  157.8401 H       1  UNL1        0.1552
     24 C         144.0185  142.1125  157.1407 C.ar    1  UNL1        0.1472
     25 N         143.4693  140.9674  157.9388 N.ar    1  UNL1       -0.1976
     26 C         143.6532  139.5595  157.4549 C.ar    1  UNL1        0.2220
     27 N         144.3864  139.2968  156.1729 N.ar    1  UNL1       -0.2110
     28 C         144.9356  140.4419  155.3748 C.ar    1  UNL1        0.1160
     29 C         144.7517  141.8498  155.8587 C.ar    1  UNL1        0.1085
     30 CL        145.3010  142.9949  155.0606 Cl      1  UNL1       -0.0777
     31 N         143.8346  143.5203  157.6246 N.pl3   1  UNL1       -0.2970
     32 H         144.5484  143.9609  158.1399 H       1  UNL1        0.1536
     33 C         141.5328  144.4449  158.3974 C.ar    1  UNL1        0.0668
     34 C         140.2612  145.1814  158.0961 C.ar    1  UNL1        0.0058
     35 C         140.0198  145.7297  156.7209 C.ar    1  UNL1        0.0002
     36 C         141.0499  145.5415  155.6470 C.ar    1  UNL1        0.0013
     37 C         142.3215  144.8051  155.9482 C.ar    1  UNL1        0.0148
     38 C         142.5630  144.2568  157.3234 C.ar    1  UNL1        0.0537
     39 C         142.5751  144.2345  162.2209 C.3     1  UNL1        0.1109
     40 N         142.3337  144.7828  160.8457 N.am    1  UNL1       -0.2991
     41 C         141.7742  143.8967  159.7725 C.2     1  UNL1        0.2471
     42 O         141.4562  142.4622  160.0745 O.2     1  UNL1       -0.2701
     43 H         142.5424  145.7243  160.6475 H       1  UNL1        0.1498
     44 O         140.2048  138.2824  159.0133 O.3     1  UNL1       -0.4705
     45 C         139.7211  139.3913  158.1265 C.3     1  UNL1        0.2525
@<TRIPOS>BOND
     1    39    40    1
     2    40    41   am
     3    41    42    2
     4    41    33    1
     5    33    34   ar
     6    34    35   ar
     7    35    36   ar
     8    36    37   ar
     9    37    38   ar
    10    38    31    1
    11    31    24    1
    12    24    25   ar
    13    25    26   ar
    14    26    22    1
    15    22     1    1
    16     1     2   ar
    17     2     3   ar
    18     3     4   ar
    19     4     5   ar
    20     5     6   ar
    21     6    44    1
    22    44    45    1
    23     5     7    1
    24     7     8    1
    25     8     9    1
    26     9    10    1
    27    10    12    1
    28    12    13    1
    29    13    14    1
    30    14    15    1
    31    15    18    1
    32    18    19    1
    33    19    20    1
    34    15    16    1
    35    16    17    1
    36    10    11    1
    37    26    27   ar
    38    27    28   ar
    39    28    29   ar
    40    29    30    1
    41    38    33   ar
    42    29    24   ar
    43     6     1   ar
    44    17    12    1
    45    11     4    1
    46    40    43    1
    47    31    32    1
    48    22    23    1
    49    20    21    1
@<TRIPOS>MOLECULE
*****
 45 49 0 0 0
SMALL
GASTEIGER

@<TRIPOS>ATOM
      1 C         139.6156  141.6880  159.2737 C.ar    1  UNL1        0.0846
      2 C         138.9087  140.3982  159.5681 C.ar    1  UNL1        0.0174
      3 C         139.4411  139.1085  159.0173 C.ar    1  UNL1       -0.0031
      4 C         140.6804  139.1087  158.1721 C.ar    1  UNL1       -0.0218
      5 C         141.3872  140.3985  157.8778 C.ar    1  UNL1        0.0091
      6 C         140.8548  141.6882  158.4285 C.ar    1  UNL1        0.1477
      7 C         142.6276  140.6207  157.0641 C.3     1  UNL1        0.0292
      8 C         143.4676  139.6078  156.3439 C.3     1  UNL1        0.0062
      9 C         143.2745  138.1228  156.2595 C.3     1  UNL1        0.0166
     10 C         142.1939  137.2836  156.8744 C.3     1  UNL1        0.0619
     11 C         141.0394  137.7224  157.7256 C.3     1  UNL1        0.0421
     12 N         142.2790  135.8111  156.6021 N.3     1  UNL1       -0.2713
     13 C         143.2550  134.9629  157.3624 C.3     1  UNL1        0.0896
     14 C         143.3401  133.4902  157.0901 C.3     1  UNL1        0.0897
     15 N         142.4492  132.8657  156.0574 N.3     1  UNL1       -0.2682
     16 C         141.4732  133.7139  155.2970 C.3     1  UNL1        0.0897
     17 C         141.3881  135.1866  155.5694 C.3     1  UNL1        0.0896
     18 C         142.5343  131.3932  155.7851 C.3     1  UNL1        0.1043
     19 C         143.5165  130.5465  156.5392 C.3     1  UNL1        0.1544
     20 O         143.2741  130.2233  157.9838 O.3     1  UNL1       -0.3805
     21 H         143.3236  131.0368  158.5098 H       1  UNL1        0.2105
     22 N         139.0831  142.9776  159.8244 N.pl3   1  UNL1       -0.2801
     23 H         138.6957  143.6493  159.2178 H       1  UNL1        0.1552
     24 C         139.8991  142.5443  163.6841 C.ar    1  UNL1        0.1472
     25 N         139.8412  142.2781  162.2090 N.ar    1  UNL1       -0.1976
     26 C         139.1410  143.2438  161.2995 C.ar    1  UNL1        0.2220
     27 N         138.4986  144.4757  161.8652 N.ar    1  UNL1       -0.2110
     28 C         138.5564  144.7419  163.3401 C.ar    1  UNL1        0.1160
     29 C         139.2567  143.7762  164.2496 C.ar    1  UNL1        0.1085
     30 CL        139.3146  144.0424  165.7247 Cl      1  UNL1       -0.0777
     31 N         140.5994  141.5786  164.5935 N.pl3   1  UNL1       -0.2970
     32 H         141.4538  141.8291  165.0135 H       1  UNL1        0.1536
     33 C         140.6073  139.0026  164.2555 C.ar    1  UNL1        0.0668
     34 C         140.0056  137.6552  164.5249 C.ar    1  UNL1        0.0058
     35 C         138.7944  137.5365  165.4018 C.ar    1  UNL1        0.0002
     36 C         138.1848  138.7650  166.0093 C.ar    1  UNL1        0.0013
     37 C         138.7865  140.1124  165.7398 C.ar    1  UNL1        0.0148
     38 C         139.9977  140.2312  164.8629 C.ar    1  UNL1        0.0537
     39 C         142.8921  139.7500  161.0978 C.3     1  UNL1        0.1109
     40 N         141.6809  139.6312  161.9747 N.am    1  UNL1       -0.2991
     41 C         141.8184  139.1214  163.3786 C.2     1  UNL1        0.2471
     42 O         143.1672  138.7302  163.9057 O.2     1  UNL1       -0.2701
     43 H         140.7957  139.8880  161.6288 H       1  UNL1        0.1498
     44 O         141.5617  142.9780  158.1341 O.3     1  UNL1       -0.4705
     45 C         142.4748  143.5836  159.1585 C.3     1  UNL1        0.2525
@<TRIPOS>BOND
     1    39    40    1
     2    40    41   am
     3    41    42    2
     4    41    33    1
     5    33    34   ar
     6    34    35   ar
     7    35    36   ar
     8    36    37   ar
     9    37    38   ar
    10    38    31    1
    11    31    24    1
    12    24    25   ar
    13    25    26   ar
    14    26    22    1
    15    22     1    1
    16     1     2   ar
    17     2     3   ar
    18     3     4   ar
    19     4     5   ar
    20     5     6   ar
    21     6    44    1
    22    44    45    1
    23     5     7    1
    24     7     8    1
    25     8     9    1
    26     9    10    1
    27    10    12    1
    28    12    13    1
    29    13    14    1
    30    14    15    1
    31    15    18    1
    32    18    19    1
    33    19    20    1
    34    15    16    1
    35    16    17    1
    36    10    11    1
    37    26    27   ar
    38    27    28   ar
    39    28    29   ar
    40    29    30    1
    41    38    33   ar
    42    29    24   ar
    43     6     1   ar
    44    17    12    1
    45    11     4    1
    46    40    43    1
    47    31    32    1
    48    22    23    1
    49    20    21    1
@<TRIPOS>MOLECULE
*****
 45 49 0 0 0
SMALL
GASTEIGER

@<TRIPOS>ATOM
      1 C         143.2341  139.4040  164.5600 C.ar    1  UNL1        0.0846
      2 C         144.5085  139.9878  164.0259 C.ar    1  UNL1        0.0174
      3 C         144.7062  140.1289  162.5456 C.ar    1  UNL1       -0.0031
      4 C         143.6296  139.6862  161.5996 C.ar    1  UNL1       -0.0218
      5 C         142.3554  139.1024  162.1338 C.ar    1  UNL1        0.0091
      6 C         142.1576  138.9612  163.6139 C.ar    1  UNL1        0.1477
      7 C         141.1641  138.6022  161.3716 C.3     1  UNL1        0.0292
      8 C         140.9530  138.5623  159.8870 C.3     1  UNL1        0.0062
      9 C         141.8810  139.0128  158.7981 C.3     1  UNL1        0.0166
     10 C         143.2492  139.6144  158.9246 C.3     1  UNL1        0.0619
     11 C         144.0275  139.9140  160.1714 C.3     1  UNL1        0.0421
     12 N         143.9291  139.9622  157.6336 N.3     1  UNL1       -0.2713
     13 C         144.8671  141.1312  157.5712 C.3     1  UNL1        0.0896
     14 C         145.5471  141.4790  156.2801 C.3     1  UNL1        0.0897
     15 N         145.2891  140.6580  155.0515 N.3     1  UNL1       -0.2682
     16 C         144.3511  139.4891  155.1140 C.3     1  UNL1        0.0897
     17 C         143.6711  139.1412  156.4051 C.3     1  UNL1        0.0896
     18 C         145.9690  141.0059  153.7606 C.3     1  UNL1        0.1043
     19 C         147.0788  142.0149  153.7456 C.3     1  UNL1        0.1544
     20 O         148.4333  141.6478  154.2752 O.3     1  UNL1       -0.3805
     21 H         148.3742  141.4857  155.2297 H       1  UNL1        0.2105
     22 N         143.0365  139.2629  166.0402 N.pl3   1  UNL1       -0.2801
     23 H         143.3620  138.4589  166.5059 H       1  UNL1        0.1552
     24 C         140.7869  142.4269  166.8642 C.ar    1  UNL1        0.1472
     25 N         141.4806  141.3430  166.0935 N.ar    1  UNL1       -0.1976
     26 C         142.3428  140.3468  166.8108 C.ar    1  UNL1        0.2220
     27 N         142.5111  140.4347  168.2988 N.ar    1  UNL1       -0.2110
     28 C         141.8174  141.5185  169.0694 C.ar    1  UNL1        0.1160
     29 C         140.9553  142.5147  168.3521 C.ar    1  UNL1        0.1085
     30 CL        140.2616  143.5986  169.1227 Cl      1  UNL1       -0.0777
     31 N         139.9249  143.4230  166.1468 N.pl3   1  UNL1       -0.2970
     32 H         139.7195  144.2892  166.5671 H       1  UNL1        0.1536
     33 C         140.1850  143.3983  163.5618 C.ar    1  UNL1        0.0668
     34 C         139.6359  143.0745  162.2040 C.ar    1  UNL1        0.0058
     35 C         138.2776  142.4517  162.0733 C.ar    1  UNL1        0.0002
     36 C         137.4683  142.1526  163.3003 C.ar    1  UNL1        0.0013
     37 C         138.0174  142.4764  164.6582 C.ar    1  UNL1        0.0148
     38 C         139.3758  143.0992  164.7890 C.ar    1  UNL1        0.0537
     39 C         144.1044  143.7783  164.0562 C.3     1  UNL1        0.1109
     40 N         142.7460  143.1555  163.9254 N.am    1  UNL1       -0.2991
     41 C         141.5433  144.0210  163.6926 C.2     1  UNL1        0.2471
     42 O         141.6989  145.5094  163.5904 O.2     1  UNL1       -0.2701
     43 H         142.6439  142.1786  163.9925 H       1  UNL1        0.1498
     44 O         140.8833  138.3774  164.1481 O.3     1  UNL1       -0.4705
     45 C         140.8237  136.9274  164.5273 C.3     1  UNL1        0.2525
@<TRIPOS>BOND
     1    39    40    1
     2    40    41   am
     3    41    42    2
     4    41    33    1
     5    33    34   ar
     6    34    35   ar
     7    35    36   ar
     8    36    37   ar
     9    37    38   ar
    10    38    31    1
    11    31    24    1
    12    24    25   ar
    13    25    26   ar
    14    26    22    1
    15    22     1    1
    16     1     2   ar
    17     2     3   ar
    18     3     4   ar
    19     4     5   ar
    20     5     6   ar
    21     6    44    1
    22    44    45    1
    23     5     7    1
    24     7     8    1
    25     8     9    1
    26     9    10    1
    27    10    12    1
    28    12    13    1
    29    13    14    1
    30    14    15    1
    31    15    18    1
    32    18    19    1
    33    19    20    1
    34    15    16    1
    35    16    17    1
    36    10    11    1
    37    26    27   ar
    38    27    28   ar
    39    28    29   ar
    40    29    30    1
    41    38    33   ar
    42    29    24   ar
    43     6     1   ar
    44    17    12    1
    45    11     4    1
    46    40    43    1
    47    31    32    1
    48    22    23    1
    49    20    21    1
@<TRIPOS>MOLECULE
*****
 45 49 0 0 0
SMALL
GASTEIGER

@<TRIPOS>ATOM
      1 C         143.3452  141.2086  161.4750 C.ar    1  UNL1        0.0846
      2 C         143.2261  139.8050  161.9906 C.ar    1  UNL1        0.0174
      3 C         143.0389  138.6670  161.0314 C.ar    1  UNL1       -0.0031
      4 C         142.9708  138.9327  159.5566 C.ar    1  UNL1       -0.0218
      5 C         143.0899  140.3361  159.0411 C.ar    1  UNL1        0.0091
      6 C         143.2771  141.4741  160.0002 C.ar    1  UNL1        0.1477
      7 C         143.0489  140.8175  157.6210 C.3     1  UNL1        0.0292
      8 C         142.8787  140.0141  156.3657 C.3     1  UNL1        0.0062
      9 C         142.7074  138.5311  156.2206 C.3     1  UNL1        0.0166
     10 C         142.6640  137.4850  157.2948 C.3     1  UNL1        0.0619
     11 C         142.7812  137.6637  158.7795 C.3     1  UNL1        0.0421
     12 N         142.4790  136.0737  156.8218 N.3     1  UNL1       -0.2713
     13 C         143.2585  134.9611  157.4580 C.3     1  UNL1        0.0896
     14 C         143.0734  133.5497  156.9849 C.3     1  UNL1        0.0897
     15 N         142.1089  133.2508  155.8757 N.3     1  UNL1       -0.2682
     16 C         141.3294  134.3633  155.2395 C.3     1  UNL1        0.0897
     17 C         141.5145  135.7748  155.7126 C.3     1  UNL1        0.0896
     18 C         141.9238  131.8395  155.4027 C.3     1  UNL1        0.1043
     19 C         140.7333  131.4795  154.5641 C.3     1  UNL1        0.1544
     20 O         140.8076  131.5894  153.0700 O.3     1  UNL1       -0.3805
     21 H         140.9073  132.5210  152.8189 H       1  UNL1        0.2105
     22 N         143.5325  142.3465  162.4341 N.pl3   1  UNL1       -0.2801
     23 H         144.4377  142.6774  162.6347 H       1  UNL1        0.1552
     24 C         140.0110  142.7593  164.2173 C.ar    1  UNL1        0.1472
     25 N         141.2032  142.1256  163.5637 N.ar    1  UNL1       -0.1976
     26 C         142.3403  142.9803  163.0878 C.ar    1  UNL1        0.2220
     27 N         142.2852  144.4687  163.2655 N.ar    1  UNL1       -0.2110
     28 C         141.0932  145.1025  163.9191 C.ar    1  UNL1        0.1160
     29 C         139.9561  144.2478  164.3950 C.ar    1  UNL1        0.1085
     30 CL        138.7639  144.8815  165.0486 Cl      1  UNL1       -0.0777
     31 N         138.8740  141.9046  164.6932 N.pl3   1  UNL1       -0.2970
     32 H         138.1148  142.3146  165.1673 H       1  UNL1        0.1536
     33 C         139.3482  139.4905  165.5283 C.ar    1  UNL1        0.0668
     34 C         139.3678  138.0110  165.2818 C.ar    1  UNL1        0.0058
     35 C         138.9329  137.4661  163.9536 C.ar    1  UNL1        0.0002
     36 C         138.4783  138.4007  162.8720 C.ar    1  UNL1        0.0013
     37 C         138.4587  139.8802  163.1185 C.ar    1  UNL1        0.0148
     38 C         138.8936  140.4251  164.4467 C.ar    1  UNL1        0.0537
     39 C         139.4583  140.2221  169.4274 C.3     1  UNL1        0.1109
     40 N         139.0234  139.6773  168.0992 N.am    1  UNL1       -0.2991
     41 C         139.7831  140.0353  166.8564 C.2     1  UNL1        0.2471
     42 O         140.9779  140.9383  166.9418 O.2     1  UNL1       -0.2701
     43 H         138.2392  139.0846  168.0432 H       1  UNL1        0.1498
     44 O         143.3963  142.8777  159.4846 O.3     1  UNL1       -0.4705
     45 C         142.1931  143.7730  159.4620 C.3     1  UNL1        0.2525
@<TRIPOS>BOND
     1    39    40    1
     2    40    41   am
     3    41    42    2
     4    41    33    1
     5    33    34   ar
     6    34    35   ar
     7    35    36   ar
     8    36    37   ar
     9    37    38   ar
    10    38    31    1
    11    31    24    1
    12    24    25   ar
    13    25    26   ar
    14    26    22    1
    15    22     1    1
    16     1     2   ar
    17     2     3   ar
    18     3     4   ar
    19     4     5   ar
    20     5     6   ar
    21     6    44    1
    22    44    45    1
    23     5     7    1
    24     7     8    1
    25     8     9    1
    26     9    10    1
    27    10    12    1
    28    12    13    1
    29    13    14    1
    30    14    15    1
    31    15    18    1
    32    18    19    1
    33    19    20    1
    34    15    16    1
    35    16    17    1
    36    10    11    1
    37    26    27   ar
    38    27    28   ar
    39    28    29   ar
    40    29    30    1
    41    38    33   ar
    42    29    24   ar
    43     6     1   ar
    44    17    12    1
    45    11     4    1
    46    40    43    1
    47    31    32    1
    48    22    23    1
    49    20    21    1
