@<TRIPOS>MOLECULE
*****
 27 30 0 0 0
SMALL
GASTEIGER

@<TRIPOS>ATOM
      1 O         144.1274  138.3523  160.2017 O.2     1  UNL1       -0.2818
      2 C         143.6893  138.8074  161.5623 C.2     1  UNL1        0.2473
      3 C         142.6362  138.3727  162.5379 C.2     1  UNL1        0.0908
      4 C         143.0697  139.4510  163.4863 C.2     1  UNL1        0.0586
      5 C         144.1228  139.8857  162.5106 C.2     1  UNL1        0.2367
      6 O         145.1740  140.9555  162.4913 O.2     1  UNL1       -0.2831
      7 C         142.6315  139.9060  164.8467 C.ar    1  UNL1        0.0046
      8 C         141.8298  141.1652  164.9943 C.ar    1  UNL1        0.0014
      9 C         141.3916  141.6202  166.3548 C.ar    1  UNL1        0.0145
     10 C         141.7552  140.8161  167.5677 C.ar    1  UNL1        0.0480
     11 C         142.5569  139.5570  167.4202 C.ar    1  UNL1        0.0145
     12 C         142.9951  139.1019  166.0597 C.ar    1  UNL1        0.0014
     13 N         141.3170  141.2712  168.9282 N.pl3   1  UNL1       -0.3028
     14 C         141.6783  140.4656  170.1409 C.3     1  UNL1        0.1231
     15 C         141.2401  140.9206  171.5014 C.3     1  UNL1        0.1636
     16 O         140.4408  142.1812  171.6492 O.3     1  UNL1       -0.3501
     17 C         140.0795  142.9868  170.4366 C.3     1  UNL1        0.1636
     18 C         140.5177  142.5318  169.0761 C.3     1  UNL1        0.1231
     19 N         141.5849  137.3028  162.5572 N.pl3   1  UNL1       -0.3252
     20 H         141.8462  136.3575  162.6428 H       1  UNL1        0.1473
     21 C         140.1357  137.6733  162.4461 C.3     1  UNL1        0.1338
     22 C         139.4699  138.4372  163.5522 C.ar    1  UNL1        0.0788
     23 C         139.4489  137.8771  164.9435 C.ar    1  UNL1        0.0165
     24 C         138.7831  138.6410  166.0495 C.ar    1  UNL1        0.0029
     25 C         138.1384  139.9650  165.7642 C.ar    1  UNL1        0.0207
     26 C         138.1595  140.5251  164.3729 C.ar    1  UNL1        0.0985
     27 N         138.8252  139.7612  163.2669 N.ar    1  UNL1       -0.2464
@<TRIPOS>BOND
     1     1     2    2
     2     2     3    1
     3     3    19    1
     4    19    21    1
     5    21    22    1
     6    22    23   ar
     7    23    24   ar
     8    24    25   ar
     9    25    26   ar
    10    26    27   ar
    11     3     4    2
    12     4     7    1
    13     7     8   ar
    14     8     9   ar
    15     9    10   ar
    16    10    13    1
    17    13    14    1
    18    14    15    1
    19    15    16    1
    20    16    17    1
    21    17    18    1
    22    10    11   ar
    23    11    12   ar
    24     4     5    1
    25     5     6    2
    26     5     2    1
    27    27    22   ar
    28    12     7   ar
    29    18    13    1
    30    19    20    1
@<TRIPOS>MOLECULE
*****
 27 30 0 0 0
SMALL
GASTEIGER

@<TRIPOS>ATOM
      1 O         137.1403  139.5839  160.1304 O.2     1  UNL1       -0.2818
      2 C         137.6854  139.7982  161.5114 C.2     1  UNL1        0.2473
      3 C         138.5199  138.9892  162.4595 C.2     1  UNL1        0.0908
      4 C         138.4563  140.1012  163.4642 C.2     1  UNL1        0.0586
      5 C         137.6218  140.9102  162.5161 C.2     1  UNL1        0.2367
      6 O         136.9868  142.2686  162.5560 O.2     1  UNL1       -0.2831
      7 C         139.0014  140.3154  164.8451 C.ar    1  UNL1        0.0046
      8 C         138.5925  139.4025  165.9629 C.ar    1  UNL1        0.0014
      9 C         139.1376  139.6167  167.3438 C.ar    1  UNL1        0.0145
     10 C         140.0917  140.7439  167.6070 C.ar    1  UNL1        0.0480
     11 C         140.5007  141.6567  166.4893 C.ar    1  UNL1        0.0145
     12 C         139.9556  141.4425  165.1083 C.ar    1  UNL1        0.0014
     13 N         140.6368  140.9581  168.9879 N.pl3   1  UNL1       -0.3028
     14 C         141.7883  140.1301  169.4765 C.3     1  UNL1        0.1231
     15 C         142.3334  140.3443  170.8574 C.3     1  UNL1        0.1636
     16 O         141.7271  141.3865  171.7497 O.3     1  UNL1       -0.3501
     17 C         140.5757  142.2145  171.2612 C.3     1  UNL1        0.1636
     18 C         140.0305  142.0003  169.8802 C.3     1  UNL1        0.1231
     19 N         139.1550  137.6308  162.4196 N.pl3   1  UNL1       -0.3252
     20 H         138.5934  136.8234  162.4642 H       1  UNL1        0.1473
     21 C         140.6456  137.5027  162.3118 C.3     1  UNL1        0.1338
     22 C         141.5320  138.2038  163.2981 C.ar    1  UNL1        0.0788
     23 C         141.6261  137.7042  164.7093 C.ar    1  UNL1        0.0165
     24 C         142.5124  138.4054  165.6955 C.ar    1  UNL1        0.0029
     25 C         143.3047  139.6061  165.2706 C.ar    1  UNL1        0.0207
     26 C         143.2106  140.1057  163.8594 C.ar    1  UNL1        0.0985
     27 N         142.3242  139.4046  162.8731 N.ar    1  UNL1       -0.2464
@<TRIPOS>BOND
     1     1     2    2
     2     2     3    1
     3     3    19    1
     4    19    21    1
     5    21    22    1
     6    22    23   ar
     7    23    24   ar
     8    24    25   ar
     9    25    26   ar
    10    26    27   ar
    11     3     4    2
    12     4     7    1
    13     7     8   ar
    14     8     9   ar
    15     9    10   ar
    16    10    13    1
    17    13    14    1
    18    14    15    1
    19    15    16    1
    20    16    17    1
    21    17    18    1
    22    10    11   ar
    23    11    12   ar
    24     4     5    1
    25     5     6    2
    26     5     2    1
    27    27    22   ar
    28    12     7   ar
    29    18    13    1
    30    19    20    1
@<TRIPOS>MOLECULE
*****
 27 30 0 0 0
SMALL
GASTEIGER

@<TRIPOS>ATOM
      1 O         144.4419  142.6852  159.3017 O.2     1  UNL1       -0.2818
      2 C         143.8171  142.5414  160.6578 C.2     1  UNL1        0.2473
      3 C         142.9719  143.4173  161.5343 C.2     1  UNL1        0.0908
      4 C         142.9334  142.3381  162.5755 C.2     1  UNL1        0.0586
      5 C         143.7786  141.4622  161.6989 C.2     1  UNL1        0.2367
      6 O         144.3491  140.0799  161.8153 O.2     1  UNL1       -0.2831
      7 C         142.3085  142.1944  163.9315 C.ar    1  UNL1        0.0046
      8 C         143.0541  142.6453  165.1525 C.ar    1  UNL1        0.0014
      9 C         142.4293  142.5016  166.5085 C.ar    1  UNL1        0.0145
     10 C         141.0588  141.9071  166.6436 C.ar    1  UNL1        0.0480
     11 C         140.3131  141.4563  165.4227 C.ar    1  UNL1        0.0145
     12 C         140.9380  141.5999  164.0666 C.ar    1  UNL1        0.0014
     13 N         140.4339  141.7634  167.9996 N.pl3   1  UNL1       -0.3028
     14 C         139.7360  140.4890  168.3727 C.3     1  UNL1        0.1231
     15 C         139.1111  140.3453  169.7287 C.3     1  UNL1        0.1636
     16 O         139.1841  141.4759  170.7117 O.3     1  UNL1       -0.3501
     17 C         139.8819  142.7502  170.3388 C.3     1  UNL1        0.1636
     18 C         140.5068  142.8940  168.9827 C.3     1  UNL1        0.1231
     19 N         142.4014  144.7997  161.4179 N.pl3   1  UNL1       -0.3252
     20 H         142.9883  145.5842  161.5146 H       1  UNL1        0.1473
     21 C         140.9367  144.9869  161.1543 C.3     1  UNL1        0.1338
     22 C         139.9353  144.6696  162.2252 C.ar    1  UNL1        0.0788
     23 C         140.1627  145.1452  163.6294 C.ar    1  UNL1        0.0165
     24 C         139.1614  144.8279  164.7002 C.ar    1  UNL1        0.0029
     25 C         137.9326  144.0349  164.3667 C.ar    1  UNL1        0.0207
     26 C         137.7051  143.5592  162.9624 C.ar    1  UNL1        0.0985
     27 N         138.7065  143.8766  161.8917 N.ar    1  UNL1       -0.2464
@<TRIPOS>BOND
     1     1     2    2
     2     2     3    1
     3     3    19    1
     4    19    21    1
     5    21    22    1
     6    22    23   ar
     7    23    24   ar
     8    24    25   ar
     9    25    26   ar
    10    26    27   ar
    11     3     4    2
    12     4     7    1
    13     7     8   ar
    14     8     9   ar
    15     9    10   ar
    16    10    13    1
    17    13    14    1
    18    14    15    1
    19    15    16    1
    20    16    17    1
    21    17    18    1
    22    10    11   ar
    23    11    12   ar
    24     4     5    1
    25     5     6    2
    26     5     2    1
    27    27    22   ar
    28    12     7   ar
    29    18    13    1
    30    19    20    1
@<TRIPOS>MOLECULE
*****
 27 30 0 0 0
SMALL
GASTEIGER

@<TRIPOS>ATOM
      1 O         142.9468  137.5027  160.0349 O.2     1  UNL1       -0.2818
      2 C         142.7974  138.0627  161.4184 C.2     1  UNL1        0.2473
      3 C         143.5450  139.0693  162.2416 C.2     1  UNL1        0.0908
      4 C         142.5861  138.8547  163.3750 C.2     1  UNL1        0.0586
      5 C         141.8384  137.8481  162.5517 C.2     1  UNL1        0.2367
      6 O         140.6317  136.9846  162.7710 O.2     1  UNL1       -0.2831
      7 C         142.4367  139.4147  164.7584 C.ar    1  UNL1        0.0046
      8 C         141.6569  140.6775  164.9763 C.ar    1  UNL1        0.0014
      9 C         141.5076  141.2375  166.3597 C.ar    1  UNL1        0.0145
     10 C         142.1380  140.5348  167.5254 C.ar    1  UNL1        0.0480
     11 C         142.9177  139.2721  167.3076 C.ar    1  UNL1        0.0145
     12 C         143.0671  138.7120  165.9241 C.ar    1  UNL1        0.0014
     13 N         141.9886  141.0948  168.9089 N.pl3   1  UNL1       -0.3028
     14 C         142.7292  142.3399  169.2980 C.3     1  UNL1        0.1231
     15 C         142.5799  142.8999  170.6815 C.3     1  UNL1        0.1636
     16 O         141.6899  142.2149  171.6759 O.3     1  UNL1       -0.3501
     17 C         140.9493  140.9699  171.2868 C.3     1  UNL1        0.1636
     18 C         141.0986  140.4099  169.9032 C.3     1  UNL1        0.1231
     19 N         144.7518  139.9329  162.0224 N.pl3   1  UNL1       -0.3252
     20 H         145.6527  139.5693  162.1815 H       1  UNL1        0.1473
     21 C         144.5858  141.3503  161.5607 C.3     1  UNL1        0.1338
     22 C         144.3952  142.4486  162.5645 C.ar    1  UNL1        0.0788
     23 C         144.7067  142.2047  164.0113 C.ar    1  UNL1        0.0165
     24 C         144.5160  143.3030  165.0150 C.ar    1  UNL1        0.0029
     25 C         144.0138  144.6451  164.5718 C.ar    1  UNL1        0.0207
     26 C         143.7022  144.8890  163.1250 C.ar    1  UNL1        0.0985
     27 N         143.8929  143.7908  162.1213 N.ar    1  UNL1       -0.2464
@<TRIPOS>BOND
     1     1     2    2
     2     2     3    1
     3     3    19    1
     4    19    21    1
     5    21    22    1
     6    22    23   ar
     7    23    24   ar
     8    24    25   ar
     9    25    26   ar
    10    26    27   ar
    11     3     4    2
    12     4     7    1
    13     7     8   ar
    14     8     9   ar
    15     9    10   ar
    16    10    13    1
    17    13    14    1
    18    14    15    1
    19    15    16    1
    20    16    17    1
    21    17    18    1
    22    10    11   ar
    23    11    12   ar
    24     4     5    1
    25     5     6    2
    26     5     2    1
    27    27    22   ar
    28    12     7   ar
    29    18    13    1
    30    19    20    1
@<TRIPOS>MOLECULE
*****
 27 30 0 0 0
SMALL
GASTEIGER

@<TRIPOS>ATOM
      1 O         140.3812  141.2904  171.9234 O.2     1  UNL1       -0.2818
      2 C         140.4623  141.7477  170.4970 C.2     1  UNL1        0.2473
      3 C         140.2763  141.0921  169.1609 C.2     1  UNL1        0.0908
      4 C         140.5769  142.3944  168.4800 C.2     1  UNL1        0.0586
      5 C         140.7629  143.0501  169.8163 C.2     1  UNL1        0.2367
      6 O         141.1070  144.4346  170.2797 O.2     1  UNL1       -0.2831
      7 C         140.6580  142.8517  167.0537 C.ar    1  UNL1        0.0046
      8 C         141.8688  142.5273  166.2298 C.ar    1  UNL1        0.0014
      9 C         141.9499  142.9846  164.8035 C.ar    1  UNL1        0.0145
     10 C         140.8202  143.7662  164.2011 C.ar    1  UNL1        0.0480
     11 C         139.6095  144.0906  165.0250 C.ar    1  UNL1        0.0145
     12 C         139.5283  143.6333  166.4513 C.ar    1  UNL1        0.0014
     13 N         140.9013  144.2235  162.7749 N.pl3   1  UNL1       -0.3028
     14 C         140.0564  145.3708  162.3059 C.3     1  UNL1        0.1231
     15 C         140.1374  145.8280  160.8796 C.3     1  UNL1        0.1636
     16 O         141.0634  145.1380  159.9222 O.3     1  UNL1       -0.3501
     17 C         141.9083  143.9908  160.3912 C.3     1  UNL1        0.1636
     18 C         141.8272  143.5335  161.8175 C.3     1  UNL1        0.1231
     19 N         139.9322  139.7076  168.6974 N.pl3   1  UNL1       -0.3252
     20 H         140.3736  138.9279  169.1056 H       1  UNL1        0.1473
     21 C         138.9157  139.5109  167.6121 C.3     1  UNL1        0.1338
     22 C         139.3035  139.7082  166.1765 C.ar    1  UNL1        0.0788
     23 C         138.3693  140.4113  165.2370 C.ar    1  UNL1        0.0165
     24 C         138.7571  140.6085  163.8016 C.ar    1  UNL1        0.0029
     25 C         140.0792  140.1026  163.3056 C.ar    1  UNL1        0.0207
     26 C         141.0135  139.3995  164.2450 C.ar    1  UNL1        0.0985
     27 N         140.6257  139.2023  165.6805 N.ar    1  UNL1       -0.2464
@<TRIPOS>BOND
     1     1     2    2
     2     2     3    1
     3     3    19    1
     4    19    21    1
     5    21    22    1
     6    22    23   ar
     7    23    24   ar
     8    24    25   ar
     9    25    26   ar
    10    26    27   ar
    11     3     4    2
    12     4     7    1
    13     7     8   ar
    14     8     9   ar
    15     9    10   ar
    16    10    13    1
    17    13    14    1
    18    14    15    1
    19    15    16    1
    20    16    17    1
    21    17    18    1
    22    10    11   ar
    23    11    12   ar
    24     4     5    1
    25     5     6    2
    26     5     2    1
    27    27    22   ar
    28    12     7   ar
    29    18    13    1
    30    19    20    1
@<TRIPOS>MOLECULE
*****
 27 30 0 0 0
SMALL
GASTEIGER

@<TRIPOS>ATOM
      1 O         140.5285  141.9759  172.0483 O.2     1  UNL1       -0.2818
      2 C         140.2591  141.6109  170.6185 C.2     1  UNL1        0.2473
      3 C         140.8902  141.9490  169.3005 C.2     1  UNL1        0.0908
      4 C         139.8780  141.0947  168.5965 C.2     1  UNL1        0.0586
      5 C         139.2468  140.7565  169.9146 C.2     1  UNL1        0.2367
      6 O         138.0848  139.9133  170.3488 O.2     1  UNL1       -0.2831
      7 C         139.6086  140.7297  167.1668 C.ar    1  UNL1        0.0046
      8 C         139.3645  139.2980  166.7914 C.ar    1  UNL1        0.0014
      9 C         139.0951  138.9330  165.3617 C.ar    1  UNL1        0.0145
     10 C         139.0698  139.9996  164.3073 C.ar    1  UNL1        0.0480
     11 C         139.3139  141.4312  164.6826 C.ar    1  UNL1        0.0145
     12 C         139.5834  141.7963  166.1124 C.ar    1  UNL1        0.0014
     13 N         138.8004  139.6346  162.8776 N.pl3   1  UNL1       -0.3028
     14 C         139.5584  138.5110  162.2347 C.3     1  UNL1        0.1231
     15 C         139.2890  138.1460  160.8050 C.3     1  UNL1        0.1636
     16 O         138.2617  138.9045  160.0181 O.3     1  UNL1       -0.3501
     17 C         137.5037  140.0281  160.6609 C.3     1  UNL1        0.1636
     18 C         137.7731  140.3931  162.0907 C.3     1  UNL1        0.1231
     19 N         142.0523  142.7923  168.8662 N.pl3   1  UNL1       -0.3252
     20 H         142.0402  143.7644  169.0212 H       1  UNL1        0.1473
     21 C         143.2328  142.1544  168.1957 C.3     1  UNL1        0.1338
     22 C         143.1148  141.6536  166.7866 C.ar    1  UNL1        0.0788
     23 C         142.9940  140.1822  166.5213 C.ar    1  UNL1        0.0165
     24 C         142.8761  139.6815  165.1123 C.ar    1  UNL1        0.0029
     25 C         142.8790  140.6521  163.9687 C.ar    1  UNL1        0.0207
     26 C         142.9998  142.1235  164.2340 C.ar    1  UNL1        0.0985
     27 N         143.1178  142.6242  165.6430 N.ar    1  UNL1       -0.2464
@<TRIPOS>BOND
     1     1     2    2
     2     2     3    1
     3     3    19    1
     4    19    21    1
     5    21    22    1
     6    22    23   ar
     7    23    24   ar
     8    24    25   ar
     9    25    26   ar
    10    26    27   ar
    11     3     4    2
    12     4     7    1
    13     7     8   ar
    14     8     9   ar
    15     9    10   ar
    16    10    13    1
    17    13    14    1
    18    14    15    1
    19    15    16    1
    20    16    17    1
    21    17    18    1
    22    10    11   ar
    23    11    12   ar
    24     4     5    1
    25     5     6    2
    26     5     2    1
    27    27    22   ar
    28    12     7   ar
    29    18    13    1
    30    19    20    1
@<TRIPOS>MOLECULE
*****
 27 30 0 0 0
SMALL
GASTEIGER

@<TRIPOS>ATOM
      1 O         142.6623  144.1419  159.6282 O.2     1  UNL1       -0.2818
      2 C         142.4347  143.7615  161.0612 C.2     1  UNL1        0.2473
      3 C         141.5270  142.8025  161.7726 C.2     1  UNL1        0.0908
      4 C         142.1127  143.2236  163.0877 C.2     1  UNL1        0.0586
      5 C         143.0205  144.1827  162.3763 C.2     1  UNL1        0.2367
      6 O         144.0765  145.1587  162.8032 O.2     1  UNL1       -0.2831
      7 C         141.8850  142.8431  164.5207 C.ar    1  UNL1        0.0046
      8 C         140.5837  143.1773  165.1877 C.ar    1  UNL1        0.0014
      9 C         140.3560  142.7968  166.6207 C.ar    1  UNL1        0.0145
     10 C         141.4296  142.0823  167.3867 C.ar    1  UNL1        0.0480
     11 C         142.7309  141.7482  166.7197 C.ar    1  UNL1        0.0145
     12 C         142.9587  142.1286  165.2867 C.ar    1  UNL1        0.0014
     13 N         141.2019  141.7019  168.8196 N.pl3   1  UNL1       -0.3028
     14 C         141.9106  142.4434  169.9142 C.3     1  UNL1        0.1231
     15 C         141.6829  142.0630  171.3471 C.3     1  UNL1        0.1636
     16 O         140.7466  140.9410  171.6856 O.3     1  UNL1       -0.3501
     17 C         140.0380  140.1995  170.5911 C.3     1  UNL1        0.1636
     18 C         140.2656  140.5799  169.1581 C.3     1  UNL1        0.1231
     19 N         140.4709  141.8265  161.3457 N.pl3   1  UNL1       -0.3252
     20 H         139.7369  142.1206  160.7592 H       1  UNL1        0.1473
     21 C         140.5331  140.4023  161.8125 C.3     1  UNL1        0.1338
     22 C         140.0589  140.0429  163.1895 C.ar    1  UNL1        0.0788
     23 C         140.9542  139.2721  164.1136 C.ar    1  UNL1        0.0165
     24 C         140.4800  138.9127  165.4905 C.ar    1  UNL1        0.0029
     25 C         139.1104  139.3242  165.9433 C.ar    1  UNL1        0.0207
     26 C         138.2151  140.0950  165.0191 C.ar    1  UNL1        0.0985
     27 N         138.6893  140.4544  163.6422 N.ar    1  UNL1       -0.2464
@<TRIPOS>BOND
     1     1     2    2
     2     2     3    1
     3     3    19    1
     4    19    21    1
     5    21    22    1
     6    22    23   ar
     7    23    24   ar
     8    24    25   ar
     9    25    26   ar
    10    26    27   ar
    11     3     4    2
    12     4     7    1
    13     7     8   ar
    14     8     9   ar
    15     9    10   ar
    16    10    13    1
    17    13    14    1
    18    14    15    1
    19    15    16    1
    20    16    17    1
    21    17    18    1
    22    10    11   ar
    23    11    12   ar
    24     4     5    1
    25     5     6    2
    26     5     2    1
    27    27    22   ar
    28    12     7   ar
    29    18    13    1
    30    19    20    1
@<TRIPOS>MOLECULE
*****
 27 30 0 0 0
SMALL
GASTEIGER

@<TRIPOS>ATOM
      1 O         143.4359  139.7804  170.8713 O.2     1  UNL1       -0.2818
      2 C         143.0682  140.5019  169.6086 C.2     1  UNL1        0.2473
      3 C         142.7729  140.0872  168.1977 C.2     1  UNL1        0.0908
      4 C         142.5483  141.5221  167.8229 C.2     1  UNL1        0.0586
      5 C         142.8437  141.9369  169.2339 C.2     1  UNL1        0.2367
      6 O         142.8937  143.2448  169.9666 O.2     1  UNL1       -0.2831
      7 C         142.1807  142.2435  166.5603 C.ar    1  UNL1        0.0046
      8 C         140.7375  142.4296  166.1958 C.ar    1  UNL1        0.0014
      9 C         140.3699  143.1510  164.9331 C.ar    1  UNL1        0.0145
     10 C         141.4453  143.6864  164.0349 C.ar    1  UNL1        0.0480
     11 C         142.8884  143.5003  164.3993 C.ar    1  UNL1        0.0145
     12 C         143.2561  142.7789  165.6620 C.ar    1  UNL1        0.0014
     13 N         141.0777  144.4078  162.7722 N.pl3   1  UNL1       -0.3028
     14 C         141.7435  144.0424  161.4786 C.3     1  UNL1        0.1231
     15 C         141.3758  144.7638  160.2160 C.3     1  UNL1        0.1636
     16 O         140.3424  145.8506  160.2468 O.3     1  UNL1       -0.3501
     17 C         139.6766  146.2160  161.5403 C.3     1  UNL1        0.1636
     18 C         140.0442  145.4945  162.8031 C.3     1  UNL1        0.1231
     19 N         142.7228  138.7792  167.4650 N.pl3   1  UNL1       -0.3252
     20 H         142.0441  138.1071  167.7034 H       1  UNL1        0.1473
     21 C         143.7068  138.4954  166.3690 C.3     1  UNL1        0.1338
     22 C         143.5534  139.1595  165.0327 C.ar    1  UNL1        0.0788
     23 C         142.1889  139.3372  164.4358 C.ar    1  UNL1        0.0165
     24 C         142.0355  140.0013  163.0996 C.ar    1  UNL1        0.0029
     25 C         143.2467  140.4877  162.3604 C.ar    1  UNL1        0.0207
     26 C         144.6112  140.3101  162.9574 C.ar    1  UNL1        0.0985
     27 N         144.7646  139.6460  164.2935 N.ar    1  UNL1       -0.2464
@<TRIPOS>BOND
     1     1     2    2
     2     2     3    1
     3     3    19    1
     4    19    21    1
     5    21    22    1
     6    22    23   ar
     7    23    24   ar
     8    24    25   ar
     9    25    26   ar
    10    26    27   ar
    11     3     4    2
    12     4     7    1
    13     7     8   ar
    14     8     9   ar
    15     9    10   ar
    16    10    13    1
    17    13    14    1
    18    14    15    1
    19    15    16    1
    20    16    17    1
    21    17    18    1
    22    10    11   ar
    23    11    12   ar
    24     4     5    1
    25     5     6    2
    26     5     2    1
    27    27    22   ar
    28    12     7   ar
    29    18    13    1
    30    19    20    1
@<TRIPOS>MOLECULE
*****
 27 30 0 0 0
SMALL
GASTEIGER

@<TRIPOS>ATOM
      1 O         143.1939  143.6553  159.6537 O.2     1  UNL1       -0.2818
      2 C         142.8995  143.3304  161.0882 C.2     1  UNL1        0.2473
      3 C         142.1893  142.2171  161.7994 C.2     1  UNL1        0.0908
      4 C         142.4833  142.8710  163.1169 C.2     1  UNL1        0.0586
      5 C         143.1936  143.9844  162.4057 C.2     1  UNL1        0.2367
      6 O         143.9038  145.2341  162.8345 O.2     1  UNL1       -0.2831
      7 C         142.1890  142.5461  164.5514 C.ar    1  UNL1        0.0046
      8 C         143.3104  142.4425  165.5423 C.ar    1  UNL1        0.0014
      9 C         143.0161  142.1176  166.9767 C.ar    1  UNL1        0.0145
     10 C         141.6004  141.8963  167.4204 C.ar    1  UNL1        0.0480
     11 C         140.4790  142.0000  166.4296 C.ar    1  UNL1        0.0145
     12 C         140.7733  142.3249  164.9950 C.ar    1  UNL1        0.0014
     13 N         141.3060  141.5714  168.8549 N.pl3   1  UNL1       -0.3028
     14 C         140.3561  140.4607  169.1927 C.3     1  UNL1        0.1231
     15 C         140.0618  140.1358  170.6272 C.3     1  UNL1        0.1636
     16 O         140.7173  140.9216  171.7239 O.3     1  UNL1       -0.3501
     17 C         141.6671  142.0323  171.3862 C.3     1  UNL1        0.1636
     18 C         141.9615  142.3572  169.9516 C.3     1  UNL1        0.1231
     19 N         141.4791  140.9673  161.3706 N.pl3   1  UNL1       -0.3252
     20 H         140.6086  141.0276  160.9146 H       1  UNL1        0.1473
     21 C         142.0950  139.6258  161.6367 C.3     1  UNL1        0.1338
     22 C         142.6549  139.3132  162.9928 C.ar    1  UNL1        0.0788
     23 C         141.7468  138.8369  164.0876 C.ar    1  UNL1        0.0165
     24 C         142.3067  138.5244  165.4436 C.ar    1  UNL1        0.0029
     25 C         143.7747  138.6882  165.7049 C.ar    1  UNL1        0.0207
     26 C         144.6827  139.1645  164.6101 C.ar    1  UNL1        0.0985
     27 N         144.1228  139.4771  163.2541 N.ar    1  UNL1       -0.2464
@<TRIPOS>BOND
     1     1     2    2
     2     2     3    1
     3     3    19    1
     4    19    21    1
     5    21    22    1
     6    22    23   ar
     7    23    24   ar
     8    24    25   ar
     9    25    26   ar
    10    26    27   ar
    11     3     4    2
    12     4     7    1
    13     7     8   ar
    14     8     9   ar
    15     9    10   ar
    16    10    13    1
    17    13    14    1
    18    14    15    1
    19    15    16    1
    20    16    17    1
    21    17    18    1
    22    10    11   ar
    23    11    12   ar
    24     4     5    1
    25     5     6    2
    26     5     2    1
    27    27    22   ar
    28    12     7   ar
    29    18    13    1
    30    19    20    1
