@<TRIPOS>MOLECULE
*****
 40 45 0 0 0
SMALL
GASTEIGER

@<TRIPOS>ATOM
      1 C         141.3960  143.0038  161.5935 C.3     1  UNL1        0.0667
      2 C         142.1795  142.4729  160.4297 C.3     1  UNL1        0.0186
      3 C         143.0289  143.4000  159.6119 C.3     1  UNL1        0.0229
      4 C         143.8123  142.8691  158.4481 C.3     1  UNL1        0.0934
      5 N         143.7463  141.4111  158.1021 N.am    1  UNL1       -0.2795
      6 C         144.5298  140.8802  156.9383 C.2     1  UNL1        0.2276
      7 O         144.4637  139.4221  156.5924 O.2     1  UNL1       -0.2748
      8 C         142.8969  140.4839  158.9199 C.3     1  UNL1        0.0934
      9 C         142.1135  141.0148  160.0837 C.3     1  UNL1        0.0229
     10 C         145.3792  141.8074  156.1205 C.3     1  UNL1        0.1062
     11 C         146.8245  142.1255  156.3653 C.3     1  UNL1        0.0411
     12 C         147.2711  143.0939  155.3104 C.3     1  UNL1        0.1158
     13 C         146.8245  143.8656  154.1042 C.3     1  UNL1        0.0321
     14 C         145.3792  143.5475  153.8595 C.3     1  UNL1        0.0325
     15 C         144.9326  142.5791  154.9143 C.3     1  UNL1        0.1238
     16 O         146.1018  142.2987  155.8111 O.3     1  UNL1       -0.3582
     17 N         142.2068  141.6594  166.1764 N.pl3   1  UNL1       -0.3039
     18 C         143.4417  142.4814  165.9536 C.3     1  UNL1        0.0923
     19 C         143.8616  143.2226  164.7189 C.3     1  UNL1        0.0387
     20 C         143.1504  143.3249  163.4021 C.3     1  UNL1        0.0739
     21 N         141.8437  142.7113  162.9949 N.3     1  UNL1       -0.2720
     22 C         140.9254  141.8438  163.8038 C.3     1  UNL1        0.0937
     23 C         141.0870  141.3757  165.2196 C.3     1  UNL1        0.1081
     24 C         142.6360  139.6727  167.7945 C.ar    1  UNL1       -0.0044
     25 C         142.5035  139.0525  169.1538 C.ar    1  UNL1        0.0161
     26 C         141.8095  139.7989  170.2544 C.ar    1  UNL1        0.0812
     27 N         141.2480  141.1655  169.9956 N.ar    1  UNL1       -0.2865
     28 C         140.5176  142.1341  170.8779 C.ar    1  UNL1        0.1022
     29 C         140.1987  143.3529  170.0638 C.ar    1  UNL1        0.1196
     30 N         140.7319  143.1376  168.6784 N.ar    1  UNL1       -0.2236
     31 C         141.3804  141.7857  168.6363 C.ar    1  UNL1        0.1609
     32 C         142.0744  141.0393  167.5357 C.ar    1  UNL1        0.0788
     33 C         142.5267  138.1629  165.6830 C.3     1  UNL1        0.0051
     34 C         143.3300  138.9262  166.6939 C.3     1  UNL1        0.0278
     35 C         140.1649  143.8272  161.3557 C.3     1  UNL1        0.1007
     36 C         140.2292  145.3217  161.4666 C.2     1  UNL1        0.2207
     37 N         140.8830  145.9579  162.6573 N.am    1  UNL1       -0.3288
     38 O         139.6397  146.1799  160.3869 O.2     1  UNL1       -0.2753
     39 H         141.2699  145.3945  163.3660 H       1  UNL1        0.1449
     40 H         140.9253  146.9387  162.7302 H       1  UNL1        0.1449
@<TRIPOS>BOND
     1    33    34    1
     2    34    24    1
     3    24    25   ar
     4    25    26   ar
     5    26    27   ar
     6    27    28   ar
     7    28    29   ar
     8    29    30   ar
     9    30    31   ar
    10    31    32   ar
    11    32    17    1
    12    17    18    1
    13    18    19    1
    14    19    20    1
    15    20    21    1
    16    21     1    1
    17     1    35    1
    18    35    36    1
    19    36    37   am
    20    36    38    2
    21     1     2    1
    22     2     3    1
    23     3     4    1
    24     4     5    1
    25     5     6   am
    26     6     7    2
    27    10     6    1
    28    10    11    1
    29    12    11    1
    30    12    13    1
    31    13    14    1
    32    15    14    1
    33    15    16    1
    34     5     8    1
    35     8     9    1
    36    21    22    1
    37    22    23    1
    38    32    24   ar
    39    23    17    1
    40    31    27   ar
    41     9     2    1
    42    15    10    1
    43    16    12    1
    44    37    39    1
    45    37    40    1
@<TRIPOS>MOLECULE
*****
 40 45 0 0 0
SMALL
GASTEIGER

@<TRIPOS>ATOM
      1 C         142.1140  143.4516  161.6575 C.3     1  UNL1        0.0667
      2 C         142.4852  142.5227  160.5398 C.3     1  UNL1        0.0186
      3 C         141.5058  141.4899  160.0663 C.3     1  UNL1        0.0229
      4 C         141.8770  140.5609  158.9486 C.3     1  UNL1        0.0934
      5 N         143.2275  140.6647  158.3044 N.am    1  UNL1       -0.2795
      6 C         143.5987  139.7358  157.1867 C.2     1  UNL1        0.2276
      7 O         144.9494  139.8396  156.5424 O.2     1  UNL1       -0.2748
      8 C         144.2070  141.6975  158.7778 C.3     1  UNL1        0.0934
      9 C         143.8358  142.6264  159.8955 C.3     1  UNL1        0.0229
     10 C         142.6194  138.7030  156.7132 C.3     1  UNL1        0.1062
     11 C         142.5259  137.2876  157.2009 C.3     1  UNL1        0.0411
     12 C         141.4103  136.6141  156.4581 C.3     1  UNL1        0.1158
     13 C         140.3524  136.8154  155.4138 C.3     1  UNL1        0.0321
     14 C         140.4459  138.2308  154.9262 C.3     1  UNL1        0.0325
     15 C         141.5615  138.9043  155.6690 C.3     1  UNL1        0.1238
     16 O         142.1575  137.9052  156.6157 O.3     1  UNL1       -0.3582
     17 N         142.4447  141.8290  166.2100 N.pl3   1  UNL1       -0.3039
     18 C         143.6929  142.6599  166.1684 C.3     1  UNL1        0.0923
     19 C         144.2371  143.4738  165.0320 C.3     1  UNL1        0.0387
     20 C         143.6676  143.6577  163.6565 C.3     1  UNL1        0.0739
     21 N         142.4133  143.0733  163.0778 N.3     1  UNL1       -0.2720
     22 C         141.4186  142.1605  163.7316 C.3     1  UNL1        0.0937
     23 C         141.4325  141.6067  165.1255 C.3     1  UNL1        0.1081
     24 C         142.6569  139.7234  167.7172 C.ar    1  UNL1       -0.0044
     25 C         142.3850  139.0221  169.0148 C.ar    1  UNL1        0.0161
     26 C         141.6290  139.7248  170.1033 C.ar    1  UNL1        0.0812
     27 N         141.1449  141.1290  169.8938 N.ar    1  UNL1       -0.2865
     28 C         140.3800  142.0692  170.7775 C.ar    1  UNL1        0.1022
     29 C         140.1791  143.3517  170.0259 C.ar    1  UNL1        0.1196
     30 N         140.8199  143.2041  168.6777 N.ar    1  UNL1       -0.2236
     31 C         141.4168  141.8304  168.5961 C.ar    1  UNL1        0.1609
     32 C         142.1728  141.1276  167.5078 C.ar    1  UNL1        0.0788
     33 C         142.6761  138.1930  165.6178 C.3     1  UNL1        0.0051
     34 C         143.4129  139.0206  166.6287 C.3     1  UNL1        0.0278
     35 C         141.4435  144.7589  161.3548 C.3     1  UNL1        0.1007
     36 C         140.4003  145.3003  162.2868 C.2     1  UNL1        0.2207
     37 N         140.7718  145.6777  163.6902 N.am    1  UNL1       -0.3288
     38 O         138.9858  145.4641  161.8155 O.2     1  UNL1       -0.2753
     39 H         141.7002  145.5702  163.9996 H       1  UNL1        0.1449
     40 H         140.0872  146.0331  164.3020 H       1  UNL1        0.1449
@<TRIPOS>BOND
     1    33    34    1
     2    34    24    1
     3    24    25   ar
     4    25    26   ar
     5    26    27   ar
     6    27    28   ar
     7    28    29   ar
     8    29    30   ar
     9    30    31   ar
    10    31    32   ar
    11    32    17    1
    12    17    18    1
    13    18    19    1
    14    19    20    1
    15    20    21    1
    16    21     1    1
    17     1    35    1
    18    35    36    1
    19    36    37   am
    20    36    38    2
    21     1     2    1
    22     2     3    1
    23     3     4    1
    24     4     5    1
    25     5     6   am
    26     6     7    2
    27    10     6    1
    28    10    11    1
    29    12    11    1
    30    12    13    1
    31    13    14    1
    32    15    14    1
    33    15    16    1
    34     5     8    1
    35     8     9    1
    36    21    22    1
    37    22    23    1
    38    32    24   ar
    39    23    17    1
    40    31    27   ar
    41     9     2    1
    42    15    10    1
    43    16    12    1
    44    37    39    1
    45    37    40    1
@<TRIPOS>MOLECULE
*****
 40 45 0 0 0
SMALL
GASTEIGER

@<TRIPOS>ATOM
      1 C         143.2600  141.0078  161.4187 C.3     1  UNL1        0.0667
      2 C         142.5440  140.3191  160.2948 C.3     1  UNL1        0.0186
      3 C         143.3097  139.4608  159.3320 C.3     1  UNL1        0.0229
      4 C         142.5937  138.7721  158.2081 C.3     1  UNL1        0.0934
      5 N         141.1121  138.9418  158.0470 N.am    1  UNL1       -0.2795
      6 C         140.3962  138.2531  156.9231 C.2     1  UNL1        0.2276
      7 O         138.9145  138.4229  156.7620 O.2     1  UNL1       -0.2748
      8 C         140.3464  139.8002  159.0098 C.3     1  UNL1        0.0934
      9 C         141.0624  140.4888  160.1337 C.3     1  UNL1        0.0229
     10 C         141.1618  137.3948  155.9603 C.3     1  UNL1        0.1062
     11 C         141.8633  137.8688  154.7221 C.3     1  UNL1        0.0411
     12 C         142.4954  136.6787  154.0631 C.3     1  UNL1        0.1158
     13 C         142.6939  135.1957  154.1694 C.3     1  UNL1        0.0321
     14 C         141.9923  134.7217  155.4076 C.3     1  UNL1        0.0325
     15 C         141.3602  135.9118  156.0666 C.3     1  UNL1        0.1238
     16 O         141.6711  137.1213  155.2357 O.3     1  UNL1       -0.3582
     17 N         141.8411  140.3997  166.0105 N.pl3   1  UNL1       -0.3039
     18 C         142.7678  139.2255  165.8964 C.3     1  UNL1        0.0923
     19 C         143.5796  138.7864  164.7140 C.3     1  UNL1        0.0387
     20 C         143.6654  139.4129  163.3537 C.3     1  UNL1        0.0739
     21 N         142.9606  140.6332  162.8399 N.3     1  UNL1       -0.2720
     22 C         141.9958  141.5285  163.5595 C.3     1  UNL1        0.0937
     23 C         141.4976  141.4246  164.9705 C.3     1  UNL1        0.1081
     24 C         139.8138  139.9750  167.5788 C.ar    1  UNL1       -0.0044
     25 C         139.1420  140.1468  168.9088 C.ar    1  UNL1        0.0161
     26 C         139.8256  140.9153  170.0007 C.ar    1  UNL1        0.0812
     27 N         141.1811  141.5119  169.7625 N.ar    1  UNL1       -0.2865
     28 C         142.0931  142.3146  170.6422 C.ar    1  UNL1        0.1022
     29 C         143.3286  142.6387  169.8559 C.ar    1  UNL1        0.1196
     30 N         143.1802  142.0365  168.4901 N.ar    1  UNL1       -0.2236
     31 C         141.8529  141.3400  168.4324 C.ar    1  UNL1        0.1609
     32 C         141.1693  140.5716  167.3406 C.ar    1  UNL1        0.0788
     33 C         138.1710  139.9024  165.5674 C.3     1  UNL1        0.0051
     34 C         139.1302  139.2065  166.4869 C.3     1  UNL1        0.0278
     35 C         144.2754  142.0711  161.1213 C.3     1  UNL1        0.1007
     36 C         144.9204  142.8275  162.2446 C.2     1  UNL1        0.2207
     37 N         145.8958  142.1369  163.1510 N.am    1  UNL1       -0.3288
     38 O         144.5899  144.2745  162.4615 O.2     1  UNL1       -0.2753
     39 H         146.1127  141.1872  163.0086 H       1  UNL1        0.1449
     40 H         146.3191  142.6333  163.8883 H       1  UNL1        0.1449
@<TRIPOS>BOND
     1    33    34    1
     2    34    24    1
     3    24    25   ar
     4    25    26   ar
     5    26    27   ar
     6    27    28   ar
     7    28    29   ar
     8    29    30   ar
     9    30    31   ar
    10    31    32   ar
    11    32    17    1
    12    17    18    1
    13    18    19    1
    14    19    20    1
    15    20    21    1
    16    21     1    1
    17     1    35    1
    18    35    36    1
    19    36    37   am
    20    36    38    2
    21     1     2    1
    22     2     3    1
    23     3     4    1
    24     4     5    1
    25     5     6   am
    26     6     7    2
    27    10     6    1
    28    10    11    1
    29    12    11    1
    30    12    13    1
    31    13    14    1
    32    15    14    1
    33    15    16    1
    34     5     8    1
    35     8     9    1
    36    21    22    1
    37    22    23    1
    38    32    24   ar
    39    23    17    1
    40    31    27   ar
    41     9     2    1
    42    15    10    1
    43    16    12    1
    44    37    39    1
    45    37    40    1
@<TRIPOS>MOLECULE
*****
 40 45 0 0 0
SMALL
GASTEIGER

@<TRIPOS>ATOM
      1 C         141.5386  141.4897  160.7676 C.3     1  UNL1        0.0667
      2 C         142.0360  140.6021  159.6654 C.3     1  UNL1        0.0186
      3 C         141.2743  139.3630  159.2987 C.3     1  UNL1        0.0229
      4 C         141.7717  138.4755  158.1965 C.3     1  UNL1        0.0934
      5 N         143.0307  138.8271  157.4609 N.am    1  UNL1       -0.2795
      6 C         143.5280  137.9395  156.3586 C.2     1  UNL1        0.2276
      7 O         144.7871  138.2912  155.6230 O.2     1  UNL1       -0.2748
      8 C         143.7924  140.0662  157.8275 C.3     1  UNL1        0.0934
      9 C         143.2951  140.9537  158.9297 C.3     1  UNL1        0.0229
     10 C         142.7664  136.7004  155.9920 C.3     1  UNL1        0.1062
     11 C         141.5432  136.6414  155.1258 C.3     1  UNL1        0.0411
     12 C         141.1149  135.2073  155.0256 C.3     1  UNL1        0.1158
     13 C         141.4427  133.8097  155.4607 C.3     1  UNL1        0.0321
     14 C         142.6659  133.8688  156.3269 C.3     1  UNL1        0.0325
     15 C         143.0941  135.3029  156.4272 C.3     1  UNL1        0.1238
     16 O         142.1356  136.1301  155.6229 O.3     1  UNL1       -0.3582
     17 N         141.1016  140.4923  165.4880 N.pl3   1  UNL1       -0.3039
     18 C         141.9940  139.3536  165.0917 C.3     1  UNL1        0.0923
     19 C         142.5481  139.0276  163.7365 C.3     1  UNL1        0.0387
     20 C         142.3467  139.7597  162.4428 C.3     1  UNL1        0.0739
     21 N         141.5415  140.9986  162.1849 N.3     1  UNL1       -0.2720
     22 C         140.7388  141.8115  163.1570 C.3     1  UNL1        0.0937
     23 C         140.5430  141.5862  164.6269 C.3     1  UNL1        0.1081
     24 C         139.4335  139.9175  167.3950 C.ar    1  UNL1       -0.0044
     25 C         139.0489  139.9691  168.8439 C.ar    1  UNL1        0.0161
     26 C         139.9480  140.6473  169.8348 C.ar    1  UNL1        0.0812
     27 N         141.2316  141.2737  169.3768 N.ar    1  UNL1       -0.2865
     28 C         142.3112  142.0060  170.1171 C.ar    1  UNL1        0.1022
     29 C         143.3631  142.4069  169.1257 C.ar    1  UNL1        0.1196
     30 N         142.9335  141.9224  167.7727 N.ar    1  UNL1       -0.2236
     31 C         141.6161  141.2221  167.9278 C.ar    1  UNL1        0.1609
     32 C         140.7171  140.5440  166.9369 C.ar    1  UNL1        0.0788
     33 C         137.6593  138.1022  166.8410 C.3     1  UNL1        0.0051
     34 C         138.5344  139.2394  166.4040 C.3     1  UNL1        0.0278
     35 C         141.0384  142.8683  160.4524 C.3     1  UNL1        0.1007
     36 C         141.9404  144.0530  160.6334 C.2     1  UNL1        0.2207
     37 N         141.4556  145.4264  160.2744 N.am    1  UNL1       -0.3288
     38 O         143.3271  143.8644  161.1733 O.2     1  UNL1       -0.2753
     39 H         140.5455  145.5502  159.9200 H       1  UNL1        0.1449
     40 H         142.0476  146.2040  160.3932 H       1  UNL1        0.1449
@<TRIPOS>BOND
     1    33    34    1
     2    34    24    1
     3    24    25   ar
     4    25    26   ar
     5    26    27   ar
     6    27    28   ar
     7    28    29   ar
     8    29    30   ar
     9    30    31   ar
    10    31    32   ar
    11    32    17    1
    12    17    18    1
    13    18    19    1
    14    19    20    1
    15    20    21    1
    16    21     1    1
    17     1    35    1
    18    35    36    1
    19    36    37   am
    20    36    38    2
    21     1     2    1
    22     2     3    1
    23     3     4    1
    24     4     5    1
    25     5     6   am
    26     6     7    2
    27    10     6    1
    28    10    11    1
    29    12    11    1
    30    12    13    1
    31    13    14    1
    32    15    14    1
    33    15    16    1
    34     5     8    1
    35     8     9    1
    36    21    22    1
    37    22    23    1
    38    32    24   ar
    39    23    17    1
    40    31    27   ar
    41     9     2    1
    42    15    10    1
    43    16    12    1
    44    37    39    1
    45    37    40    1
@<TRIPOS>MOLECULE
*****
 40 45 0 0 0
SMALL
GASTEIGER

@<TRIPOS>ATOM
      1 C         139.3884  140.9764  162.0576 C.3     1  UNL1        0.0667
      2 C         139.4808  140.8629  163.5505 C.3     1  UNL1        0.0186
      3 C         140.4297  141.7402  164.3121 C.3     1  UNL1        0.0229
      4 C         140.5221  141.6267  165.8049 C.3     1  UNL1        0.0934
      5 N         139.6657  140.6359  166.5362 N.am    1  UNL1       -0.2795
      6 C         139.7581  140.5225  168.0290 C.2     1  UNL1        0.2276
      7 O         138.9016  139.5316  168.7603 O.2     1  UNL1       -0.2748
      8 C         138.7167  139.7586  165.7746 C.3     1  UNL1        0.0934
      9 C         138.6244  139.8721  164.2818 C.3     1  UNL1        0.0229
     10 C         140.7069  141.3997  168.7906 C.3     1  UNL1        0.1062
     11 C         140.3978  142.7576  169.3479 C.3     1  UNL1        0.0411
     12 C         141.6312  143.2704  170.0304 C.3     1  UNL1        0.1158
     13 C         143.0557  142.9439  170.3684 C.3     1  UNL1        0.0321
     14 C         143.3648  141.5860  169.8110 C.3     1  UNL1        0.0325
     15 C         142.1314  141.0732  169.1286 C.3     1  UNL1        0.1238
     16 O         141.0600  142.1142  169.2641 O.3     1  UNL1       -0.3582
     17 N         142.5118  139.3661  158.7231 N.pl3   1  UNL1       -0.3039
     18 C         142.9014  138.4675  159.8593 C.3     1  UNL1        0.0923
     19 C         142.3311  138.4120  161.2455 C.3     1  UNL1        0.0387
     20 C         141.2305  139.2413  161.8380 C.3     1  UNL1        0.0739
     21 N         140.4284  140.3309  161.1906 N.3     1  UNL1       -0.2720
     22 C         140.5287  140.8603  159.7907 C.3     1  UNL1        0.0937
     23 C         141.4559  140.4310  158.6926 C.3     1  UNL1        0.1081
     24 C         142.9734  138.0081  156.5568 C.ar    1  UNL1       -0.0044
     25 C         143.7413  137.8163  155.2827 C.ar    1  UNL1        0.0161
     26 C         144.8158  138.7909  154.9007 C.ar    1  UNL1        0.0812
     27 N         145.1222  139.9571  155.7928 N.ar    1  UNL1       -0.2865
     28 C         146.1177  141.0734  155.6791 C.ar    1  UNL1        0.1022
     29 C         145.9650  141.9550  156.8830 C.ar    1  UNL1        0.1196
     30 N         144.8751  141.3836  157.7408 N.ar    1  UNL1       -0.2236
     31 C         144.3542  140.1489  157.0669 C.ar    1  UNL1        0.1609
     32 C         143.2798  139.1744  157.4489 C.ar    1  UNL1        0.0788
     33 C         141.4117  136.0252  155.9410 C.3     1  UNL1        0.0051
     34 C         141.8989  137.0336  156.9389 C.3     1  UNL1        0.0278
     35 C         138.2560  141.7354  161.4318 C.3     1  UNL1        0.1007
     36 C         138.2666  143.2354  161.4342 C.2     1  UNL1        0.2207
     37 N         137.4794  143.9893  162.4647 N.am    1  UNL1       -0.3288
     38 O         139.0644  143.9814  160.4060 O.2     1  UNL1       -0.2753
     39 H         136.9558  143.4997  163.1394 H       1  UNL1        0.1449
     40 H         137.4864  144.9738  162.4662 H       1  UNL1        0.1449
@<TRIPOS>BOND
     1    33    34    1
     2    34    24    1
     3    24    25   ar
     4    25    26   ar
     5    26    27   ar
     6    27    28   ar
     7    28    29   ar
     8    29    30   ar
     9    30    31   ar
    10    31    32   ar
    11    32    17    1
    12    17    18    1
    13    18    19    1
    14    19    20    1
    15    20    21    1
    16    21     1    1
    17     1    35    1
    18    35    36    1
    19    36    37   am
    20    36    38    2
    21     1     2    1
    22     2     3    1
    23     3     4    1
    24     4     5    1
    25     5     6   am
    26     6     7    2
    27    10     6    1
    28    10    11    1
    29    12    11    1
    30    12    13    1
    31    13    14    1
    32    15    14    1
    33    15    16    1
    34     5     8    1
    35     8     9    1
    36    21    22    1
    37    22    23    1
    38    32    24   ar
    39    23    17    1
    40    31    27   ar
    41     9     2    1
    42    15    10    1
    43    16    12    1
    44    37    39    1
    45    37    40    1
@<TRIPOS>MOLECULE
*****
 40 45 0 0 0
SMALL
GASTEIGER

@<TRIPOS>ATOM
      1 C         140.1011  142.6371  161.3172 C.3     1  UNL1        0.0667
      2 C         140.0841  141.6602  160.1790 C.3     1  UNL1        0.0186
      3 C         141.3564  140.9982  159.7398 C.3     1  UNL1        0.0229
      4 C         141.3394  140.0213  158.6017 C.3     1  UNL1        0.0934
      5 N         140.0502  139.7064  157.9027 N.am    1  UNL1       -0.2795
      6 C         140.0332  138.7295  156.7646 C.2     1  UNL1        0.2276
      7 O         138.7438  138.4146  156.0657 O.2     1  UNL1       -0.2748
      8 C         138.7777  140.3684  158.3420 C.3     1  UNL1        0.0934
      9 C         138.7948  141.3453  159.4801 C.3     1  UNL1        0.0229
     10 C         141.3055  138.0675  156.3254 C.3     1  UNL1        0.1062
     11 C         142.2569  138.5865  155.2883 C.3     1  UNL1        0.0411
     12 C         143.3892  137.6101  155.1680 C.3     1  UNL1        0.1158
     13 C         143.9335  136.3129  155.6886 C.3     1  UNL1        0.0321
     14 C         142.9821  135.7939  156.7257 C.3     1  UNL1        0.0325
     15 C         141.8498  136.7703  156.8460 C.3     1  UNL1        0.1238
     16 O         142.1014  137.8928  155.8833 O.3     1  UNL1       -0.3582
     17 N         140.7424  141.2222  165.9057 N.pl3   1  UNL1       -0.3039
     18 C         139.2887  140.8826  165.7590 C.3     1  UNL1        0.0923
     19 C         138.4033  141.0592  164.5612 C.3     1  UNL1        0.0387
     20 C         138.7529  141.6190  163.2141 C.3     1  UNL1        0.0739
     21 N         140.0742  142.1405  162.7323 N.3     1  UNL1       -0.2720
     22 C         141.3723  142.2309  163.4785 C.3     1  UNL1        0.0937
     23 C         141.6697  141.8223  164.8908 C.3     1  UNL1        0.1081
     24 C         142.1833  139.6895  167.4303 C.ar    1  UNL1       -0.0044
     25 C         142.7898  139.3893  168.7689 C.ar    1  UNL1        0.0161
     26 C         142.5621  140.3217  169.9217 C.ar    1  UNL1        0.0812
     27 N         141.7278  141.5543  169.7357 N.ar    1  UNL1       -0.2865
     28 C         141.3321  142.6504  170.6802 C.ar    1  UNL1        0.1022
     29 C         140.4809  143.6279  169.9253 C.ar    1  UNL1        0.1196
     30 N         140.3506  143.1361  168.5142 N.ar    1  UNL1       -0.2236
     31 C         141.1212  141.8545  168.3970 C.ar    1  UNL1        0.1609
     32 C         141.3490  140.9221  167.2444 C.ar    1  UNL1        0.0788
     33 C         143.7245  138.7669  165.5532 C.3     1  UNL1        0.0051
     34 C         142.4110  138.7570  166.2776 C.3     1  UNL1        0.0278
     35 C         140.1449  144.1107  161.0401 C.3     1  UNL1        0.1007
     36 C         139.6016  145.0798  162.0479 C.2     1  UNL1        0.2207
     37 N         140.4965  146.1297  162.6370 N.am    1  UNL1       -0.3288
     38 O         138.1635  144.9991  162.4667 O.2     1  UNL1       -0.2753
     39 H         141.4404  146.1827  162.3621 H       1  UNL1        0.1449
     40 H         140.1400  146.7658  163.2985 H       1  UNL1        0.1449
@<TRIPOS>BOND
     1    33    34    1
     2    34    24    1
     3    24    25   ar
     4    25    26   ar
     5    26    27   ar
     6    27    28   ar
     7    28    29   ar
     8    29    30   ar
     9    30    31   ar
    10    31    32   ar
    11    32    17    1
    12    17    18    1
    13    18    19    1
    14    19    20    1
    15    20    21    1
    16    21     1    1
    17     1    35    1
    18    35    36    1
    19    36    37   am
    20    36    38    2
    21     1     2    1
    22     2     3    1
    23     3     4    1
    24     4     5    1
    25     5     6   am
    26     6     7    2
    27    10     6    1
    28    10    11    1
    29    12    11    1
    30    12    13    1
    31    13    14    1
    32    15    14    1
    33    15    16    1
    34     5     8    1
    35     8     9    1
    36    21    22    1
    37    22    23    1
    38    32    24   ar
    39    23    17    1
    40    31    27   ar
    41     9     2    1
    42    15    10    1
    43    16    12    1
    44    37    39    1
    45    37    40    1
@<TRIPOS>MOLECULE
*****
 40 45 0 0 0
SMALL
GASTEIGER

@<TRIPOS>ATOM
      1 C         139.8708  140.9141  161.3475 C.3     1  UNL1        0.0667
      2 C         140.6479  140.2263  160.2645 C.3     1  UNL1        0.0186
      3 C         140.2072  138.8832  159.7625 C.3     1  UNL1        0.0229
      4 C         140.9843  138.1954  158.6794 C.3     1  UNL1        0.0934
      5 N         142.2020  138.8506  158.0984 N.am    1  UNL1       -0.2795
      6 C         142.9791  138.1627  157.0153 C.2     1  UNL1        0.2276
      7 O         144.1970  138.8180  156.4343 O.2     1  UNL1       -0.2748
      8 C         142.6428  140.1937  158.6004 C.3     1  UNL1        0.0934
      9 C         141.8657  140.8814  159.6834 C.3     1  UNL1        0.0229
     10 C         142.5385  136.8197  156.5133 C.3     1  UNL1        0.1062
     11 C         141.4963  136.5692  155.4640 C.3     1  UNL1        0.0411
     12 C         141.3762  135.0861  155.2746 C.3     1  UNL1        0.1158
     13 C         141.9003  133.7577  155.7337 C.3     1  UNL1        0.0321
     14 C         142.9425  134.0082  156.7831 C.3     1  UNL1        0.0325
     15 C         143.0625  135.4913  156.9725 C.3     1  UNL1        0.1238
     16 O         142.0946  136.1575  156.0402 O.3     1  UNL1       -0.3582
     17 N         141.5342  141.0227  165.8960 N.pl3   1  UNL1       -0.3039
     18 C         142.2057  142.2582  165.3736 C.3     1  UNL1        0.0923
     19 C         142.1345  142.8504  163.9974 C.3     1  UNL1        0.0387
     20 C         141.3741  142.3536  162.8035 C.3     1  UNL1        0.0739
     21 N         140.4974  141.1418  162.6912 N.3     1  UNL1       -0.2720
     22 C         140.1643  140.1275  163.7449 C.3     1  UNL1        0.0937
     23 C         140.6257  140.0744  165.1712 C.3     1  UNL1        0.1081
     24 C         142.6045  139.4702  167.6833 C.ar    1  UNL1       -0.0044
     25 C         142.8777  139.1393  169.1205 C.ar    1  UNL1        0.0161
     26 C         142.3539  140.0299  170.2079 C.ar    1  UNL1        0.0812
     27 N         141.5569  141.2515  169.8580 N.ar    1  UNL1       -0.2865
     28 C         140.9160  142.3090  170.7071 C.ar    1  UNL1        0.1022
     29 C         140.2467  143.2935  169.7945 C.ar    1  UNL1        0.1196
     30 N         140.4739  142.8445  168.3814 N.ar    1  UNL1       -0.2236
     31 C         141.2836  141.5824  168.4207 C.ar    1  UNL1        0.1609
     32 C         141.8075  140.6918  167.3333 C.ar    1  UNL1        0.0788
     33 C         144.2383  137.6136  166.8872 C.3     1  UNL1        0.0051
     34 C         143.1283  138.5796  166.5958 C.3     1  UNL1        0.0278
     35 C         138.4670  141.3743  161.0868 C.3     1  UNL1        0.1007
     36 C         137.7252  142.1499  162.1346 C.2     1  UNL1        0.2207
     37 N         136.9636  141.4258  163.2050 N.am    1  UNL1       -0.3288
     38 O         137.7450  143.6496  162.1123 O.2     1  UNL1       -0.2753
     39 H         136.9506  140.4415  163.2196 H       1  UNL1        0.1449
     40 H         136.4766  141.9348  163.8927 H       1  UNL1        0.1449
@<TRIPOS>BOND
     1    33    34    1
     2    34    24    1
     3    24    25   ar
     4    25    26   ar
     5    26    27   ar
     6    27    28   ar
     7    28    29   ar
     8    29    30   ar
     9    30    31   ar
    10    31    32   ar
    11    32    17    1
    12    17    18    1
    13    18    19    1
    14    19    20    1
    15    20    21    1
    16    21     1    1
    17     1    35    1
    18    35    36    1
    19    36    37   am
    20    36    38    2
    21     1     2    1
    22     2     3    1
    23     3     4    1
    24     4     5    1
    25     5     6   am
    26     6     7    2
    27    10     6    1
    28    10    11    1
    29    12    11    1
    30    12    13    1
    31    13    14    1
    32    15    14    1
    33    15    16    1
    34     5     8    1
    35     8     9    1
    36    21    22    1
    37    22    23    1
    38    32    24   ar
    39    23    17    1
    40    31    27   ar
    41     9     2    1
    42    15    10    1
    43    16    12    1
    44    37    39    1
    45    37    40    1
@<TRIPOS>MOLECULE
*****
 40 45 0 0 0
SMALL
GASTEIGER

@<TRIPOS>ATOM
      1 C         143.0208  140.0398  158.7359 C.3     1  UNL1        0.0667
      2 C         142.8577  139.7277  160.1940 C.3     1  UNL1        0.0186
      3 C         141.5056  139.8270  160.8356 C.3     1  UNL1        0.0229
      4 C         141.3425  139.5149  162.2937 C.3     1  UNL1        0.0934
      5 N         142.5315  139.1035  163.1102 N.am    1  UNL1       -0.2795
      6 C         142.3685  138.7913  164.5682 C.2     1  UNL1        0.2276
      7 O         143.5577  138.3798  165.3847 O.2     1  UNL1       -0.2748
      8 C         143.8838  139.0040  162.4686 C.3     1  UNL1        0.0934
      9 C         144.0468  139.3162  161.0105 C.3     1  UNL1        0.0229
     10 C         141.0163  138.8907  165.2099 C.3     1  UNL1        0.1062
     11 C         140.5134  140.0393  166.0331 C.3     1  UNL1        0.0411
     12 C         139.1159  139.7175  166.4730 C.3     1  UNL1        0.1158
     13 C         138.0293  138.6858  166.4041 C.3     1  UNL1        0.0321
     14 C         138.5322  137.5372  165.5808 C.3     1  UNL1        0.0325
     15 C         139.9297  137.8590  165.1410 C.3     1  UNL1        0.1238
     16 O         140.2905  139.2065  165.6923 O.3     1  UNL1       -0.3582
     17 N         143.4279  136.0485  156.0209 N.pl3   1  UNL1       -0.3039
     18 C         144.2805  136.9732  155.2035 C.3     1  UNL1        0.0923
     19 C         144.6078  138.4145  155.4594 C.3     1  UNL1        0.0387
     20 C         144.1634  139.2871  156.5958 C.3     1  UNL1        0.0739
     21 N         143.2820  138.9338  157.7569 N.3     1  UNL1       -0.2720
     22 C         142.6272  137.6207  158.0684 C.3     1  UNL1        0.0937
     23 C         142.6921  136.3366  157.2959 C.3     1  UNL1        0.1081
     24 C         142.5729  134.4028  154.2013 C.ar    1  UNL1       -0.0044
     25 C         142.4383  133.0052  153.6738 C.ar    1  UNL1        0.0161
     26 C         143.0242  131.8553  154.4384 C.ar    1  UNL1        0.0812
     27 N         143.7446  132.1032  155.7305 N.ar    1  UNL1       -0.2865
     28 C         144.4203  131.1760  156.6967 C.ar    1  UNL1        0.1022
     29 C         144.9725  132.0007  157.8214 C.ar    1  UNL1        0.1196
     30 N         144.6381  133.4375  157.5503 N.ar    1  UNL1       -0.2236
     31 C         143.8792  133.5009  156.2580 C.ar    1  UNL1        0.1609
     32 C         143.2933  134.6507  155.4934 C.ar    1  UNL1        0.0788
     33 C         140.6112  136.0503  153.7679 C.3     1  UNL1        0.0051
     34 C         141.9870  135.5528  153.4367 C.3     1  UNL1        0.0278
     35 C         142.9226  141.4579  158.2570 C.3     1  UNL1        0.1007
     36 C         143.8184  142.5102  158.8402 C.2     1  UNL1        0.2207
     37 N         143.3178  143.3932  159.9446 N.am    1  UNL1       -0.3288
     38 O         145.2148  142.6795  158.3190 O.2     1  UNL1       -0.2753
     39 H         142.4014  143.2821  160.2866 H       1  UNL1        0.1449
     40 H         143.9058  144.0839  160.3274 H       1  UNL1        0.1449
@<TRIPOS>BOND
     1    33    34    1
     2    34    24    1
     3    24    25   ar
     4    25    26   ar
     5    26    27   ar
     6    27    28   ar
     7    28    29   ar
     8    29    30   ar
     9    30    31   ar
    10    31    32   ar
    11    32    17    1
    12    17    18    1
    13    18    19    1
    14    19    20    1
    15    20    21    1
    16    21     1    1
    17     1    35    1
    18    35    36    1
    19    36    37   am
    20    36    38    2
    21     1     2    1
    22     2     3    1
    23     3     4    1
    24     4     5    1
    25     5     6   am
    26     6     7    2
    27    10     6    1
    28    10    11    1
    29    12    11    1
    30    12    13    1
    31    13    14    1
    32    15    14    1
    33    15    16    1
    34     5     8    1
    35     8     9    1
    36    21    22    1
    37    22    23    1
    38    32    24   ar
    39    23    17    1
    40    31    27   ar
    41     9     2    1
    42    15    10    1
    43    16    12    1
    44    37    39    1
    45    37    40    1
@<TRIPOS>MOLECULE
*****
 40 45 0 0 0
SMALL
GASTEIGER

@<TRIPOS>ATOM
      1 C         139.8709  140.8779  158.9426 C.3     1  UNL1        0.0667
      2 C         140.7680  139.8942  158.2516 C.3     1  UNL1        0.0186
      3 C         140.3400  138.4643  158.1034 C.3     1  UNL1        0.0229
      4 C         141.2371  137.4805  157.4124 C.3     1  UNL1        0.0934
      5 N         142.5622  137.9268  156.8696 N.am    1  UNL1       -0.2795
      6 C         143.4593  136.9430  156.1786 C.2     1  UNL1        0.2276
      7 O         144.7846  137.3893  155.6357 O.2     1  UNL1       -0.2748
      8 C         142.9904  139.3568  157.0177 C.3     1  UNL1        0.0934
      9 C         142.0932  140.3404  157.7087 C.3     1  UNL1        0.0229
     10 C         143.0313  135.5131  156.0304 C.3     1  UNL1        0.1062
     11 C         143.3321  134.3989  156.9887 C.3     1  UNL1        0.0411
     12 C         142.7140  133.1434  156.4486 C.3     1  UNL1        0.1158
     13 C         141.9101  132.5765  155.3162 C.3     1  UNL1        0.0321
     14 C         141.6092  133.6907  154.3580 C.3     1  UNL1        0.0325
     15 C         142.2273  134.9462  154.8981 C.3     1  UNL1        0.1238
     16 O         142.9101  134.6080  156.1901 O.3     1  UNL1       -0.3582
     17 N         140.0363  141.1272  163.7777 N.pl3   1  UNL1       -0.3039
     18 C         138.7511  140.3681  163.6281 C.3     1  UNL1        0.0923
     19 C         138.0669  139.9268  162.3684 C.3     1  UNL1        0.0387
     20 C         138.4987  140.1355  160.9471 C.3     1  UNL1        0.0739
     21 N         139.7213  140.8371  160.4345 N.3     1  UNL1       -0.2720
     22 C         140.8143  141.5033  161.2167 C.3     1  UNL1        0.0937
     23 C         140.9545  141.6324  162.7045 C.3     1  UNL1        0.1081
     24 C         139.9422  142.6416  165.8866 C.ar    1  UNL1       -0.0044
     25 C         140.3649  142.9342  167.2957 C.ar    1  UNL1        0.0161
     26 C         141.3047  142.0049  168.0051 C.ar    1  UNL1        0.0812
     27 N         141.8217  140.7830  167.3053 N.ar    1  UNL1       -0.2865
     28 C         142.7522  139.6922  167.7460 C.ar    1  UNL1        0.1022
     29 C         142.9045  138.7255  166.6093 C.ar    1  UNL1        0.1196
     30 N         142.0681  139.2188  165.4660 N.ar    1  UNL1       -0.2236
     31 C         141.3989  140.4904  165.8962 C.ar    1  UNL1        0.1609
     32 C         140.4591  141.4198  165.1868 C.ar    1  UNL1        0.0788
     33 C         139.5347  144.7882  164.4808 C.3     1  UNL1        0.0051
     34 C         139.0023  143.5710  165.1772 C.3     1  UNL1        0.0278
     35 C         139.1234  141.9025  158.1415 C.3     1  UNL1        0.1007
     36 C         137.7680  141.5781  157.5869 C.2     1  UNL1        0.2207
     37 N         137.0013  142.6177  156.8243 N.am    1  UNL1       -0.3288
     38 O         137.1794  140.2142  157.7948 O.2     1  UNL1       -0.2753
     39 H         137.3877  143.5128  156.6878 H       1  UNL1        0.1449
     40 H         136.1118  142.4048  156.4602 H       1  UNL1        0.1449
@<TRIPOS>BOND
     1    33    34    1
     2    34    24    1
     3    24    25   ar
     4    25    26   ar
     5    26    27   ar
     6    27    28   ar
     7    28    29   ar
     8    29    30   ar
     9    30    31   ar
    10    31    32   ar
    11    32    17    1
    12    17    18    1
    13    18    19    1
    14    19    20    1
    15    20    21    1
    16    21     1    1
    17     1    35    1
    18    35    36    1
    19    36    37   am
    20    36    38    2
    21     1     2    1
    22     2     3    1
    23     3     4    1
    24     4     5    1
    25     5     6   am
    26     6     7    2
    27    10     6    1
    28    10    11    1
    29    12    11    1
    30    12    13    1
    31    13    14    1
    32    15    14    1
    33    15    16    1
    34     5     8    1
    35     8     9    1
    36    21    22    1
    37    22    23    1
    38    32    24   ar
    39    23    17    1
    40    31    27   ar
    41     9     2    1
    42    15    10    1
    43    16    12    1
    44    37    39    1
    45    37    40    1
