@<TRIPOS>MOLECULE
*****
 24 26 0 0 0
SMALL
GASTEIGER

@<TRIPOS>ATOM
      1 C         139.5427  140.1865  167.6428 C.ar    1  UNL1       -0.0001
      2 C         138.5949  139.1118  167.1992 C.ar    1  UNL1       -0.0003
      3 C         137.9964  139.1601  165.8246 C.ar    1  UNL1       -0.0029
      4 C         138.3456  140.2832  164.8936 C.ar    1  UNL1       -0.0047
      5 C         139.2933  141.3579  165.3372 C.ar    1  UNL1       -0.0047
      6 C         139.8919  141.3095  166.7118 C.ar    1  UNL1       -0.0029
      7 C         139.4494  142.3333  164.2083 C.3     1  UNL1        0.1202
      8 N         138.5980  141.8613  163.0671 N.am    1  UNL1       -0.2713
      9 C         138.4540  142.5377  161.7359 C.2     1  UNL1        0.2256
     10 O         137.5613  141.9451  160.6862 O.2     1  UNL1       -0.2749
     11 C         137.9158  140.5943  163.4906 C.3     1  UNL1        0.1202
     12 C         139.2029  143.8066  161.4545 C.3     1  UNL1        0.0767
     13 C         140.1700  144.0285  160.3296 C.3     1  UNL1        0.0091
     14 C         140.6809  145.4354  160.4284 C.3     1  UNL1        0.0005
     15 C         140.0294  146.0828  161.6144 C.3     1  UNL1        0.0005
     16 C         139.1159  145.0761  162.2486 C.3     1  UNL1        0.0091
     17 C         140.4319  141.4119  169.7540 C.2     1  UNL1        0.0598
     18 C         140.1412  140.1381  169.0173 C.2     1  UNL1        0.0047
     19 O         140.4202  142.1638  172.2409 O.2     1  UNL1       -0.2681
     20 C         141.0304  141.3636  171.1286 C.2     1  UNL1        0.2679
     21 N         142.2392  140.5149  171.3908 N.am    1  UNL1       -0.1934
     22 O         142.8377  140.4665  172.7654 O.3     1  UNL1       -0.2949
     23 H         142.6397  139.9897  170.6608 H       1  UNL1        0.1825
     24 H         142.3265  141.0365  173.3609 H       1  UNL1        0.2414
@<TRIPOS>BOND
     1    19    20    2
     2    20    17    1
     3    17    18    2
     4    18     1    1
     5     1     2   ar
     6     2     3   ar
     7     3     4   ar
     8     4     5   ar
     9     5     6   ar
    10     5     7    1
    11     7     8    1
    12     8     9   am
    13     9    10    2
    14     9    12    1
    15    12    13    1
    16    13    14    1
    17    14    15    1
    18    15    16    1
    19     8    11    1
    20    20    21   am
    21    21    22    1
    22     6     1   ar
    23    16    12    1
    24    11     4    1
    25    21    23    1
    26    22    24    1
@<TRIPOS>MOLECULE
*****
 24 26 0 0 0
SMALL
GASTEIGER

@<TRIPOS>ATOM
      1 C         139.9216  140.1568  167.9812 C.ar    1  UNL1       -0.0001
      2 C         138.5677  139.5137  167.9234 C.ar    1  UNL1       -0.0003
      3 C         138.0885  138.8879  166.6472 C.ar    1  UNL1       -0.0029
      4 C         138.9632  138.9051  165.4288 C.ar    1  UNL1       -0.0047
      5 C         140.3171  139.5481  165.4867 C.ar    1  UNL1       -0.0047
      6 C         140.7963  140.1740  166.7629 C.ar    1  UNL1       -0.0029
      7 C         140.9528  139.4127  164.1347 C.3     1  UNL1        0.1202
      8 N         139.9917  138.6859  163.2414 N.am    1  UNL1       -0.2713
      9 C         140.2201  138.3344  161.8011 C.2     1  UNL1        0.2256
     10 O         139.1618  137.6018  161.0309 O.2     1  UNL1       -0.2749
     11 C         138.7621  138.3722  164.0412 C.3     1  UNL1        0.1202
     12 C         141.5068  138.7156  161.1310 C.3     1  UNL1        0.0767
     13 C         142.8303  138.0331  161.3107 C.3     1  UNL1        0.0091
     14 C         143.8374  138.7420  160.4544 C.3     1  UNL1        0.0005
     15 C         143.1363  139.8625  159.7454 C.3     1  UNL1        0.0005
     16 C         141.6958  139.8463  160.1636 C.3     1  UNL1        0.0091
     17 C         141.4329  141.8704  169.2180 C.2     1  UNL1        0.0598
     18 C         140.4007  140.7827  169.2574 C.2     1  UNL1        0.0047
     19 O         141.2381  142.1630  171.7922 O.2     1  UNL1       -0.2681
     20 C         141.9120  142.4962  170.4942 C.2     1  UNL1        0.2679
     21 N         143.0652  143.4553  170.4724 N.am    1  UNL1       -0.1934
     22 O         143.5444  144.0812  171.7486 O.3     1  UNL1       -0.2949
     23 H         143.5075  143.6740  169.6205 H       1  UNL1        0.1825
     24 H         143.0045  143.7612  172.4883 H       1  UNL1        0.2414
@<TRIPOS>BOND
     1    19    20    2
     2    20    17    1
     3    17    18    2
     4    18     1    1
     5     1     2   ar
     6     2     3   ar
     7     3     4   ar
     8     4     5   ar
     9     5     6   ar
    10     5     7    1
    11     7     8    1
    12     8     9   am
    13     9    10    2
    14     9    12    1
    15    12    13    1
    16    13    14    1
    17    14    15    1
    18    15    16    1
    19     8    11    1
    20    20    21   am
    21    21    22    1
    22     6     1   ar
    23    16    12    1
    24    11     4    1
    25    21    23    1
    26    22    24    1
@<TRIPOS>MOLECULE
*****
 24 26 0 0 0
SMALL
GASTEIGER

@<TRIPOS>ATOM
      1 C         140.4169  141.4394  167.7634 C.ar    1  UNL1       -0.0001
      2 C         139.6288  140.2598  168.2505 C.ar    1  UNL1       -0.0003
      3 C         138.8734  139.4075  167.2742 C.ar    1  UNL1       -0.0029
      4 C         138.9062  139.7349  165.8108 C.ar    1  UNL1       -0.0047
      5 C         139.6943  140.9145  165.3236 C.ar    1  UNL1       -0.0047
      6 C         140.4497  141.7667  166.2999 C.ar    1  UNL1       -0.0029
      7 C         139.5411  140.9909  163.8334 C.3     1  UNL1        0.1202
      8 N         138.6583  139.8585  163.3996 N.am    1  UNL1       -0.2713
      9 C         138.2411  139.5554  161.9909 C.2     1  UNL1        0.2256
     10 O         137.3500  138.3823  161.7086 O.2     1  UNL1       -0.2749
     11 C         138.2659  139.0822  164.6217 C.3     1  UNL1        0.1202
     12 C         138.7150  140.4255  160.8647 C.3     1  UNL1        0.0767
     13 C         139.7477  140.0576  159.8409 C.3     1  UNL1        0.0091
     14 C         139.9104  141.2209  158.9080 C.3     1  UNL1        0.0005
     15 C         138.9783  142.3077  159.3554 C.3     1  UNL1        0.0005
     16 C         138.2395  141.8161  160.5648 C.3     1  UNL1        0.0091
     17 C         142.5976  141.9654  169.0739 C.2     1  UNL1        0.0598
     18 C         141.1723  142.2916  168.7397 C.2     1  UNL1        0.0047
     19 O         142.6111  143.6052  171.0890 O.2     1  UNL1       -0.2681
     20 C         143.3530  142.8176  170.0502 C.2     1  UNL1        0.2679
     21 N         144.8504  142.8821  169.9877 N.am    1  UNL1       -0.1934
     22 O         145.6057  143.7344  170.9640 O.3     1  UNL1       -0.2949
     23 H         145.3373  142.3652  169.3059 H       1  UNL1        0.1825
     24 H         144.9803  144.1726  171.5621 H       1  UNL1        0.2414
@<TRIPOS>BOND
     1    19    20    2
     2    20    17    1
     3    17    18    2
     4    18     1    1
     5     1     2   ar
     6     2     3   ar
     7     3     4   ar
     8     4     5   ar
     9     5     6   ar
    10     5     7    1
    11     7     8    1
    12     8     9   am
    13     9    10    2
    14     9    12    1
    15    12    13    1
    16    13    14    1
    17    14    15    1
    18    15    16    1
    19     8    11    1
    20    20    21   am
    21    21    22    1
    22     6     1   ar
    23    16    12    1
    24    11     4    1
    25    21    23    1
    26    22    24    1
@<TRIPOS>MOLECULE
*****
 24 26 0 0 0
SMALL
GASTEIGER

@<TRIPOS>ATOM
      1 C         140.4537  138.8514  162.5883 C.ar    1  UNL1       -0.0001
      2 C         139.3304  137.8893  162.8380 C.ar    1  UNL1       -0.0003
      3 C         138.6982  137.8106  164.1960 C.ar    1  UNL1       -0.0029
      4 C         139.1894  138.6940  165.3042 C.ar    1  UNL1       -0.0047
      5 C         140.3127  139.6561  165.0545 C.ar    1  UNL1       -0.0047
      6 C         140.9449  139.7348  163.6965 C.ar    1  UNL1       -0.0029
      7 C         140.5825  140.3953  166.3316 C.3     1  UNL1        0.1202
      8 N         139.6258  139.8900  167.3706 N.am    1  UNL1       -0.2713
      9 C         139.5444  140.3546  168.7945 C.2     1  UNL1        0.2256
     10 O         138.5308  139.7537  169.7227 O.2     1  UNL1       -0.2749
     11 C         138.7648  138.8386  166.7356 C.3     1  UNL1        0.1202
     12 C         140.4766  141.4201  169.2902 C.3     1  UNL1        0.0767
     13 C         141.8907  141.2124  169.7451 C.3     1  UNL1        0.0091
     14 C         142.4464  142.5443  170.1541 C.3     1  UNL1        0.0005
     15 C         141.3757  143.5751  169.9520 C.3     1  UNL1        0.0005
     16 C         140.1582  142.8804  169.4180 C.3     1  UNL1        0.0091
     17 C         142.4660  138.3842  161.0127 C.2     1  UNL1        0.0598
     18 C         141.0859  138.9301  161.2303 C.2     1  UNL1        0.0047
     19 O         144.1795  139.4676  159.3878 O.2     1  UNL1       -0.2681
     20 C         143.0982  138.4629  159.6547 C.2     1  UNL1        0.2679
     21 N         142.6490  137.5367  158.5635 N.am    1  UNL1       -0.1934
     22 O         143.2812  137.6154  157.2055 O.3     1  UNL1       -0.2949
     23 H         141.9393  136.8773  158.7386 H       1  UNL1        0.1825
     24 H         143.9562  138.3121  157.2029 H       1  UNL1        0.2414
@<TRIPOS>BOND
     1    19    20    2
     2    20    17    1
     3    17    18    2
     4    18     1    1
     5     1     2   ar
     6     2     3   ar
     7     3     4   ar
     8     4     5   ar
     9     5     6   ar
    10     5     7    1
    11     7     8    1
    12     8     9   am
    13     9    10    2
    14     9    12    1
    15    12    13    1
    16    13    14    1
    17    14    15    1
    18    15    16    1
    19     8    11    1
    20    20    21   am
    21    21    22    1
    22     6     1   ar
    23    16    12    1
    24    11     4    1
    25    21    23    1
    26    22    24    1
@<TRIPOS>MOLECULE
*****
 24 26 0 0 0
SMALL
GASTEIGER

@<TRIPOS>ATOM
      1 C         139.7010  140.5278  167.0067 C.ar    1  UNL1       -0.0001
      2 C         138.7702  139.3519  166.9775 C.ar    1  UNL1       -0.0003
      3 C         138.2056  138.8745  165.6724 C.ar    1  UNL1       -0.0029
      4 C         138.5717  139.5730  164.3965 C.ar    1  UNL1       -0.0047
      5 C         139.5025  140.7489  164.4256 C.ar    1  UNL1       -0.0047
      6 C         140.0671  141.2263  165.7307 C.ar    1  UNL1       -0.0029
      7 C         139.6813  141.2337  163.0174 C.3     1  UNL1        0.1202
      8 N         138.8609  140.3574  162.1179 N.am    1  UNL1       -0.2713
      9 C         138.7463  140.4850  160.6277 C.2     1  UNL1        0.2256
     10 O         137.8829  139.5305  159.8574 O.2     1  UNL1       -0.2749
     11 C         138.1752  139.3310  162.9702 C.3     1  UNL1        0.1202
     12 C         139.4951  141.5672  159.9079 C.3     1  UNL1        0.0767
     13 C         139.0293  142.9789  159.7086 C.3     1  UNL1        0.0091
     14 C         140.0875  143.7119  158.9385 C.3     1  UNL1        0.0005
     15 C         141.2073  142.7530  158.6619 C.3     1  UNL1        0.0005
     16 C         140.8413  141.4274  159.2610 C.3     1  UNL1        0.0091
     17 C         140.4006  142.4753  168.5776 C.2     1  UNL1        0.0598
     18 C         140.2656  141.0052  168.3118 C.2     1  UNL1        0.0047
     19 O         140.8544  144.3993  170.2635 O.2     1  UNL1       -0.2681
     20 C         140.9653  142.9527  169.8827 C.2     1  UNL1        0.2679
     21 N         141.6407  141.9834  170.8070 N.am    1  UNL1       -0.1934
     22 O         142.2053  142.4608  172.1121 O.3     1  UNL1       -0.2949
     23 H         141.7135  141.0339  170.5571 H       1  UNL1        0.1825
     24 H         142.0503  143.4141  172.2021 H       1  UNL1        0.2414
@<TRIPOS>BOND
     1    19    20    2
     2    20    17    1
     3    17    18    2
     4    18     1    1
     5     1     2   ar
     6     2     3   ar
     7     3     4   ar
     8     4     5   ar
     9     5     6   ar
    10     5     7    1
    11     7     8    1
    12     8     9   am
    13     9    10    2
    14     9    12    1
    15    12    13    1
    16    13    14    1
    17    14    15    1
    18    15    16    1
    19     8    11    1
    20    20    21   am
    21    21    22    1
    22     6     1   ar
    23    16    12    1
    24    11     4    1
    25    21    23    1
    26    22    24    1
@<TRIPOS>MOLECULE
*****
 24 26 0 0 0
SMALL
GASTEIGER

@<TRIPOS>ATOM
      1 C         139.2573  139.2566  166.0560 C.ar    1  UNL1       -0.0001
      2 C         138.6724  137.9760  165.5383 C.ar    1  UNL1       -0.0003
      3 C         138.9196  137.5584  164.1190 C.ar    1  UNL1       -0.0029
      4 C         139.7517  138.4213  163.2174 C.ar    1  UNL1       -0.0047
      5 C         140.3366  139.7018  163.7351 C.ar    1  UNL1       -0.0047
      6 C         140.0894  140.1194  165.1544 C.ar    1  UNL1       -0.0029
      7 C         141.1101  140.3421  162.6207 C.3     1  UNL1        0.1202
      8 N         141.0032  139.4572  161.4142 N.am    1  UNL1       -0.2713
      9 C         141.6264  139.7143  160.0742 C.2     1  UNL1        0.2256
     10 O         141.4314  138.7338  158.9559 O.2     1  UNL1       -0.2749
     11 C         140.1637  138.2701  161.7830 C.3     1  UNL1        0.1202
     12 C         142.4445  140.9518  159.8526 C.3     1  UNL1        0.0767
     13 C         141.9574  142.2336  159.2447 C.3     1  UNL1        0.0091
     14 C         143.1052  143.1988  159.2163 C.3     1  UNL1        0.0005
     15 C         144.3018  142.5134  159.8066 C.3     1  UNL1        0.0005
     16 C         143.8935  141.1246  160.1999 C.3     1  UNL1        0.0091
     17 C         140.1633  139.8400  168.4201 C.2     1  UNL1        0.0598
     18 C         139.0101  139.6742  167.4754 C.2     1  UNL1        0.0047
     19 O         138.5926  140.8469  170.2281 O.2     1  UNL1       -0.2681
     20 C         139.9161  140.2577  169.8394 C.2     1  UNL1        0.2679
     21 N         140.9924  140.0860  170.8700 N.am    1  UNL1       -0.1934
     22 O         140.7452  140.5037  172.2893 O.3     1  UNL1       -0.2949
     23 H         141.8611  139.6993  170.6149 H       1  UNL1        0.1825
     24 H         139.8472  140.8615  172.3693 H       1  UNL1        0.2414
@<TRIPOS>BOND
     1    19    20    2
     2    20    17    1
     3    17    18    2
     4    18     1    1
     5     1     2   ar
     6     2     3   ar
     7     3     4   ar
     8     4     5   ar
     9     5     6   ar
    10     5     7    1
    11     7     8    1
    12     8     9   am
    13     9    10    2
    14     9    12    1
    15    12    13    1
    16    13    14    1
    17    14    15    1
    18    15    16    1
    19     8    11    1
    20    20    21   am
    21    21    22    1
    22     6     1   ar
    23    16    12    1
    24    11     4    1
    25    21    23    1
    26    22    24    1
@<TRIPOS>MOLECULE
*****
 24 26 0 0 0
SMALL
GASTEIGER

@<TRIPOS>ATOM
      1 C         140.2386  143.0950  166.1654 C.ar    1  UNL1       -0.0001
      2 C         139.2561  144.2197  166.0252 C.ar    1  UNL1       -0.0003
      3 C         138.9987  144.8271  164.6781 C.ar    1  UNL1       -0.0029
      4 C         139.7237  144.3099  163.4712 C.ar    1  UNL1       -0.0047
      5 C         140.7062  143.1852  163.6114 C.ar    1  UNL1       -0.0047
      6 C         140.9637  142.5777  164.9585 C.ar    1  UNL1       -0.0029
      7 C         141.2666  142.8871  162.2522 C.3     1  UNL1        0.1202
      8 N         140.6304  143.8276  161.2721 N.am    1  UNL1       -0.2713
      9 C         140.9004  143.8797  159.7975 C.2     1  UNL1        0.2256
     10 O         140.1845  144.8797  158.9388 O.2     1  UNL1       -0.2749
     11 C         139.6769  144.7069  162.0255 C.3     1  UNL1        0.1202
     12 C         141.8863  142.9317  159.1816 C.3     1  UNL1        0.0767
     13 C         143.3795  143.0700  159.2119 C.3     1  UNL1        0.0091
     14 C         143.9681  141.9027  158.4763 C.3     1  UNL1        0.0005
     15 C         142.8386  141.0431  157.9914 C.3     1  UNL1        0.0005
     16 C         141.5518  141.6790  158.4273 C.3     1  UNL1        0.0091
     17 C         140.3250  143.3136  168.7528 C.2     1  UNL1        0.0598
     18 C         140.4961  142.4875  167.5125 C.2     1  UNL1        0.0047
     19 O         139.5279  141.8668  170.7581 O.2     1  UNL1       -0.2681
     20 C         140.5825  142.7061  170.0999 C.2     1  UNL1        0.2679
     21 N         141.8947  142.9381  170.7889 N.am    1  UNL1       -0.1934
     22 O         142.1521  142.3306  172.1360 O.3     1  UNL1       -0.2949
     23 H         142.5869  143.4890  170.3569 H       1  UNL1        0.1825
     24 H         141.3745  141.8226  172.4155 H       1  UNL1        0.2414
@<TRIPOS>BOND
     1    19    20    2
     2    20    17    1
     3    17    18    2
     4    18     1    1
     5     1     2   ar
     6     2     3   ar
     7     3     4   ar
     8     4     5   ar
     9     5     6   ar
    10     5     7    1
    11     7     8    1
    12     8     9   am
    13     9    10    2
    14     9    12    1
    15    12    13    1
    16    13    14    1
    17    14    15    1
    18    15    16    1
    19     8    11    1
    20    20    21   am
    21    21    22    1
    22     6     1   ar
    23    16    12    1
    24    11     4    1
    25    21    23    1
    26    22    24    1
@<TRIPOS>MOLECULE
*****
 24 26 0 0 0
SMALL
GASTEIGER

@<TRIPOS>ATOM
      1 C         142.1734  141.2201  166.9897 C.ar    1  UNL1       -0.0001
      2 C         143.1541  142.3444  167.1451 C.ar    1  UNL1       -0.0003
      3 C         143.8912  142.8676  165.9480 C.ar    1  UNL1       -0.0029
      4 C         143.6475  142.2665  164.5955 C.ar    1  UNL1       -0.0047
      5 C         142.6668  141.1422  164.4401 C.ar    1  UNL1       -0.0047
      6 C         141.9297  140.6190  165.6372 C.ar    1  UNL1       -0.0029
      7 C         142.6346  140.7519  162.9921 C.3     1  UNL1        0.1202
      8 N         143.5954  141.6350  162.2526 N.am    1  UNL1       -0.2713
      9 C         143.8803  141.5901  160.7805 C.2     1  UNL1        0.2256
     10 O         144.8720  142.5412  160.1791 O.2     1  UNL1       -0.2749
     11 C         144.2214  142.5711  163.2435 C.3     1  UNL1        0.1202
     12 C         143.1734  140.5939  159.9099 C.3     1  UNL1        0.0767
     13 C         141.9526  140.8584  159.0795 C.3     1  UNL1        0.0091
     14 C         141.5879  139.5864  158.3732 C.3     1  UNL1        0.0005
     15 C         142.5833  138.5357  158.7672 C.3     1  UNL1        0.0005
     16 C         143.5632  139.1584  159.7170 C.3     1  UNL1        0.0091
     17 C         141.4930  141.4424  169.4872 C.2     1  UNL1        0.0598
     18 C         141.4364  140.6969  168.1868 C.2     1  UNL1        0.0047
     19 O         140.5349  141.8044  171.8748 O.2     1  UNL1       -0.2681
     20 C         140.7559  140.9192  170.6843 C.2     1  UNL1        0.2679
     21 N         140.2399  139.5107  170.6908 N.am    1  UNL1       -0.1934
     22 O         139.5029  138.9875  171.8879 O.3     1  UNL1       -0.2949
     23 H         140.3850  138.9297  169.9094 H       1  UNL1        0.1825
     24 H         139.4478  139.6821  172.5627 H       1  UNL1        0.2414
@<TRIPOS>BOND
     1    19    20    2
     2    20    17    1
     3    17    18    2
     4    18     1    1
     5     1     2   ar
     6     2     3   ar
     7     3     4   ar
     8     4     5   ar
     9     5     6   ar
    10     5     7    1
    11     7     8    1
    12     8     9   am
    13     9    10    2
    14     9    12    1
    15    12    13    1
    16    13    14    1
    17    14    15    1
    18    15    16    1
    19     8    11    1
    20    20    21   am
    21    21    22    1
    22     6     1   ar
    23    16    12    1
    24    11     4    1
    25    21    23    1
    26    22    24    1
@<TRIPOS>MOLECULE
*****
 24 26 0 0 0
SMALL
GASTEIGER

@<TRIPOS>ATOM
      1 C         139.0236  139.2954  166.2560 C.ar    1  UNL1       -0.0001
      2 C         138.7392  137.9359  165.6897 C.ar    1  UNL1       -0.0003
      3 C         138.8501  137.7006  164.2124 C.ar    1  UNL1       -0.0029
      4 C         139.2454  138.8247  163.3015 C.ar    1  UNL1       -0.0047
      5 C         139.5299  140.1843  163.8678 C.ar    1  UNL1       -0.0047
      6 C         139.4190  140.4196  165.3451 C.ar    1  UNL1       -0.0029
      7 C         139.8958  141.0925  162.7314 C.3     1  UNL1        0.1202
      8 N         139.8374  140.2943  161.4628 N.am    1  UNL1       -0.2713
      9 C         140.1297  140.8075  160.0839 C.2     1  UNL1        0.2256
     10 O         140.0295  139.8867  158.9041 O.2     1  UNL1       -0.2749
     11 C         139.4355  138.8927  161.8151 C.3     1  UNL1        0.1202
     12 C         140.5222  142.2415  159.8849 C.3     1  UNL1        0.0767
     13 C         141.9226  142.7615  159.7493 C.3     1  UNL1        0.0091
     14 C         141.8491  144.2486  159.5672 C.3     1  UNL1        0.0005
     15 C         140.4033  144.6476  159.5903 C.3     1  UNL1        0.0005
     16 C         139.5832  143.4070  159.7867 C.3     1  UNL1        0.0091
     17 C         139.8073  140.5316  168.4025 C.2     1  UNL1        0.0598
     18 C         138.9127  139.5308  167.7333 C.2     1  UNL1        0.0047
     19 O         138.8211  139.8818  170.7167 O.2     1  UNL1       -0.2681
     20 C         139.6964  140.7669  169.8798 C.2     1  UNL1        0.2679
     21 N         140.4609  141.8875  170.5202 N.am    1  UNL1       -0.1934
     22 O         140.3500  142.1228  171.9975 O.3     1  UNL1       -0.2949
     23 H         141.0354  142.4684  169.9710 H       1  UNL1        0.1825
     24 H         139.7489  141.4676  172.3851 H       1  UNL1        0.2414
@<TRIPOS>BOND
     1    19    20    2
     2    20    17    1
     3    17    18    2
     4    18     1    1
     5     1     2   ar
     6     2     3   ar
     7     3     4   ar
     8     4     5   ar
     9     5     6   ar
    10     5     7    1
    11     7     8    1
    12     8     9   am
    13     9    10    2
    14     9    12    1
    15    12    13    1
    16    13    14    1
    17    14    15    1
    18    15    16    1
    19     8    11    1
    20    20    21   am
    21    21    22    1
    22     6     1   ar
    23    16    12    1
    24    11     4    1
    25    21    23    1
    26    22    24    1
