@<TRIPOS>MOLECULE
*****
 31 34 0 0 0
SMALL
GASTEIGER

@<TRIPOS>ATOM
      1 C         142.2413  139.6131  165.1521 C.ar    1  UNL1        0.1488
      2 C         143.5867  138.9713  165.3192 C.ar    1  UNL1        0.0390
      3 C         144.7758  139.5214  164.5890 C.ar    1  UNL1        0.0417
      4 C         144.6196  140.7132  163.6917 C.ar    1  UNL1        0.1640
      5 N         145.6026  141.4714  162.8497 N.ar    1  UNL1       -0.2234
      6 C         144.8647  142.5817  162.1622 C.ar    1  UNL1        0.1197
      7 C         143.4256  142.5097  162.5793 C.ar    1  UNL1        0.1037
      8 N         143.2742  141.3550  163.5246 N.ar    1  UNL1       -0.2096
      9 N         142.0850  140.8049  164.2548 N.ar    1  UNL1       -0.1489
     10 C         142.3303  143.4308  162.1300 C.ar    1  UNL1        0.0223
     11 C         142.2634  143.8745  160.6987 C.ar    1  UNL1        0.0017
     12 C         141.1681  144.7956  160.2495 C.ar    1  UNL1        0.0032
     13 C         140.1396  145.2730  161.2314 C.ar    1  UNL1        0.0372
     14 C         140.2065  144.8293  162.6627 C.ar    1  UNL1        0.1469
     15 C         141.3018  143.9082  163.1120 C.ar    1  UNL1        0.0387
     16 O         139.1780  145.3067  163.6448 O.3     1  UNL1       -0.4045
     17 C         138.2498  144.3245  164.2957 C.3     1  UNL1        0.5753
     18 F         137.3216  143.3422  164.9467 F       1  UNL1       -0.1328
     19 F         137.5050  144.1714  163.0027 F       1  UNL1       -0.1328
     20 F         138.9946  144.4776  165.5888 F       1  UNL1       -0.1328
     21 N         141.0520  139.0630  165.8824 N.pl3   1  UNL1       -0.3168
     22 H         141.0179  138.1079  166.1186 H       1  UNL1        0.1482
     23 C         139.9147  139.9682  166.2527 C.3     1  UNL1        0.0883
     24 O         139.9133  142.5397  171.3741 O.2     1  UNL1       -0.1730
     25 S         140.2148  142.5794  169.9053 S.O2    1  UNL1       -0.0100
     26 O         140.6696  143.9527  170.3018 O.2     1  UNL1       -0.1730
     27 C         140.6742  143.0961  168.5742 C.3     1  UNL1        0.1509
     28 C         140.5742  142.2257  167.3566 C.3     1  UNL1        0.0271
     29 C         140.0148  140.8387  167.4702 C.3     1  UNL1        0.0231
     30 C         139.5553  140.3219  168.8014 C.3     1  UNL1        0.0271
     31 C         139.6553  141.1923  170.0189 C.3     1  UNL1        0.1509
@<TRIPOS>BOND
     1    24    25    2
     2    25    26    2
     3    25    27    1
     4    27    28    1
     5    28    29    1
     6    29    23    1
     7    23    21    1
     8    21     1    1
     9     1     2   ar
    10     2     3   ar
    11     3     4   ar
    12     4     5   ar
    13     5     6   ar
    14     6     7   ar
    15     7    10    1
    16    10    11   ar
    17    11    12   ar
    18    12    13   ar
    19    13    14   ar
    20    14    16    1
    21    16    17    1
    22    17    18    1
    23    17    19    1
    24    17    20    1
    25    14    15   ar
    26     7     8   ar
    27     8     9   ar
    28    29    30    1
    29    30    31    1
    30    31    25    1
    31     9     1   ar
    32     8     4   ar
    33    15    10   ar
    34    21    22    1
@<TRIPOS>MOLECULE
*****
 31 34 0 0 0
SMALL
GASTEIGER

@<TRIPOS>ATOM
      1 C         140.5377  144.7018  164.0344 C.ar    1  UNL1        0.1488
      2 C         141.2594  145.2721  162.8495 C.ar    1  UNL1        0.0390
      3 C         142.6275  144.7715  162.4924 C.ar    1  UNL1        0.0417
      4 C         143.2739  143.7004  163.3201 C.ar    1  UNL1        0.1640
      5 N         144.6031  143.0136  163.2122 N.ar    1  UNL1       -0.2234
      6 C         144.7029  142.0189  164.3304 C.ar    1  UNL1        0.1197
      7 C         143.4354  142.0908  165.1293 C.ar    1  UNL1        0.1037
      8 N         142.5522  143.1301  164.5049 N.ar    1  UNL1       -0.2096
      9 N         141.1841  143.6307  164.8620 N.ar    1  UNL1       -0.1489
     10 C         143.1084  141.2680  166.3401 C.ar    1  UNL1        0.0223
     11 C         143.2089  139.7725  166.2801 C.ar    1  UNL1        0.0017
     12 C         142.8819  138.9497  167.4909 C.ar    1  UNL1        0.0032
     13 C         142.4544  139.6222  168.7617 C.ar    1  UNL1        0.0372
     14 C         142.3540  141.1176  168.8217 C.ar    1  UNL1        0.1469
     15 C         142.6809  141.9404  167.6109 C.ar    1  UNL1        0.0387
     16 O         141.9265  141.7902  170.0925 O.3     1  UNL1       -0.4045
     17 C         141.3316  143.1665  170.0493 C.3     1  UNL1        0.5753
     18 F         140.7367  144.5429  170.0061 F       1  UNL1       -0.1328
     19 F         140.0193  142.5856  169.6129 F       1  UNL1       -0.1328
     20 F         142.6440  143.7474  170.4857 F       1  UNL1       -0.1328
     21 N         139.1695  145.2024  164.3916 N.pl3   1  UNL1       -0.3168
     22 H         139.0055  146.1696  164.4747 H       1  UNL1        0.1482
     23 C         138.0514  144.2295  164.6221 C.3     1  UNL1        0.0883
     24 O         138.0342  138.8573  162.6269 O.2     1  UNL1       -0.1730
     25 S         137.9590  140.3336  162.3721 S.O2    1  UNL1       -0.0100
     26 O         137.8365  139.8202  160.9680 O.2     1  UNL1       -0.1730
     27 C         137.8412  141.6315  161.6295 C.3     1  UNL1        0.1509
     28 C         137.8720  142.9302  162.3794 C.3     1  UNL1        0.0271
     29 C         138.0206  142.9308  163.8720 C.3     1  UNL1        0.0231
     30 C         138.1384  141.6329  164.6146 C.3     1  UNL1        0.0271
     31 C         138.1076  140.3343  163.8646 C.3     1  UNL1        0.1509
@<TRIPOS>BOND
     1    24    25    2
     2    25    26    2
     3    25    27    1
     4    27    28    1
     5    28    29    1
     6    29    23    1
     7    23    21    1
     8    21     1    1
     9     1     2   ar
    10     2     3   ar
    11     3     4   ar
    12     4     5   ar
    13     5     6   ar
    14     6     7   ar
    15     7    10    1
    16    10    11   ar
    17    11    12   ar
    18    12    13   ar
    19    13    14   ar
    20    14    16    1
    21    16    17    1
    22    17    18    1
    23    17    19    1
    24    17    20    1
    25    14    15   ar
    26     7     8   ar
    27     8     9   ar
    28    29    30    1
    29    30    31    1
    30    31    25    1
    31     9     1   ar
    32     8     4   ar
    33    15    10   ar
    34    21    22    1
@<TRIPOS>MOLECULE
*****
 31 34 0 0 0
SMALL
GASTEIGER

@<TRIPOS>ATOM
      1 C         142.4910  144.6613  163.4490 C.ar    1  UNL1        0.1488
      2 C         143.7077  144.5719  162.5764 C.ar    1  UNL1        0.0390
      3 C         144.5863  143.3577  162.6367 C.ar    1  UNL1        0.0417
      4 C         144.2481  142.2328  163.5697 C.ar    1  UNL1        0.1640
      5 N         144.9210  140.9208  163.8454 N.ar    1  UNL1       -0.2234
      6 C         144.1200  140.1993  164.8884 C.ar    1  UNL1        0.1197
      7 C         142.9522  141.0655  165.2573 C.ar    1  UNL1        0.1037
      8 N         143.0314  142.3222  164.4423 N.ar    1  UNL1       -0.2096
      9 N         142.1528  143.5364  164.3820 N.ar    1  UNL1       -0.1489
     10 C         141.8914  140.7332  166.2644 C.ar    1  UNL1        0.0223
     11 C         142.1531  140.9434  167.7264 C.ar    1  UNL1        0.0017
     12 C         141.0923  140.6111  168.7335 C.ar    1  UNL1        0.0032
     13 C         139.7699  140.0686  168.2788 C.ar    1  UNL1        0.0372
     14 C         139.5082  139.8584  166.8168 C.ar    1  UNL1        0.1469
     15 C         140.5690  140.1907  165.8097 C.ar    1  UNL1        0.0387
     16 O         138.1857  139.3159  166.3619 O.3     1  UNL1       -0.4045
     17 C         137.8001  137.9046  166.6930 C.3     1  UNL1        0.5753
     18 F         137.4145  136.4933  167.0239 F       1  UNL1       -0.1328
     19 F         136.9786  138.3996  167.8463 F       1  UNL1       -0.1328
     20 F         138.6216  137.4097  165.5396 F       1  UNL1       -0.1328
     21 N         141.6123  145.8756  163.3887 N.pl3   1  UNL1       -0.3168
     22 H         141.8245  146.6645  163.9381 H       1  UNL1        0.1482
     23 C         140.4104  145.8878  162.4914 C.3     1  UNL1        0.0883
     24 O         137.5131  141.1104  161.2169 O.2     1  UNL1       -0.1730
     25 S         137.8062  142.2321  162.1687 S.O2    1  UNL1       -0.0100
     26 O         136.7693  141.4869  162.9557 O.2     1  UNL1       -0.1730
     27 C         137.7391  143.0950  163.3938 C.3     1  UNL1        0.1509
     28 C         138.6071  144.3135  163.5014 C.3     1  UNL1        0.0271
     29 C         139.5423  144.6692  162.3839 C.3     1  UNL1        0.0231
     30 C         139.6093  143.8063  161.1587 C.3     1  UNL1        0.0271
     31 C         138.7413  142.5878  161.0511 C.3     1  UNL1        0.1509
@<TRIPOS>BOND
     1    24    25    2
     2    25    26    2
     3    25    27    1
     4    27    28    1
     5    28    29    1
     6    29    23    1
     7    23    21    1
     8    21     1    1
     9     1     2   ar
    10     2     3   ar
    11     3     4   ar
    12     4     5   ar
    13     5     6   ar
    14     6     7   ar
    15     7    10    1
    16    10    11   ar
    17    11    12   ar
    18    12    13   ar
    19    13    14   ar
    20    14    16    1
    21    16    17    1
    22    17    18    1
    23    17    19    1
    24    17    20    1
    25    14    15   ar
    26     7     8   ar
    27     8     9   ar
    28    29    30    1
    29    30    31    1
    30    31    25    1
    31     9     1   ar
    32     8     4   ar
    33    15    10   ar
    34    21    22    1
@<TRIPOS>MOLECULE
*****
 31 34 0 0 0
SMALL
GASTEIGER

@<TRIPOS>ATOM
      1 C         142.2902  143.6338  164.4405 C.ar    1  UNL1        0.1488
      2 C         142.1381  145.0376  163.9344 C.ar    1  UNL1        0.0390
      3 C         141.0746  145.3606  162.9272 C.ar    1  UNL1        0.0417
      4 C         140.1632  144.2798  162.4261 C.ar    1  UNL1        0.1640
      5 N         139.0317  144.2976  161.4414 N.ar    1  UNL1       -0.2234
      6 C         138.4845  142.9047  161.3389 C.ar    1  UNL1        0.1197
      7 C         139.2778  142.0261  162.2602 C.ar    1  UNL1        0.1037
      8 N         140.3153  142.8760  162.9321 N.ar    1  UNL1       -0.2096
      9 N         141.3788  142.5530  163.9393 N.ar    1  UNL1       -0.1489
     10 C         139.0702  140.5558  162.4724 C.ar    1  UNL1        0.0223
     11 C         138.9551  139.6366  161.2926 C.ar    1  UNL1        0.0017
     12 C         138.7475  138.1663  161.5048 C.ar    1  UNL1        0.0032
     13 C         138.6549  137.6151  162.8967 C.ar    1  UNL1        0.0372
     14 C         138.7699  138.5342  164.0765 C.ar    1  UNL1        0.1469
     15 C         138.9776  140.0046  163.8643 C.ar    1  UNL1        0.0387
     16 O         138.6773  137.9830  165.4686 O.3     1  UNL1       -0.4045
     17 C         138.7474  138.9077  166.6476 C.3     1  UNL1        0.5753
     18 F         138.8176  139.8324  167.8266 F       1  UNL1       -0.1328
     19 F         137.2579  138.8228  166.8027 F       1  UNL1       -0.1328
     20 F         140.2370  138.9926  166.4924 F       1  UNL1       -0.1328
     21 N         143.3538  143.3107  165.4477 N.pl3   1  UNL1       -0.3168
     22 H         144.1377  143.8989  165.5418 H       1  UNL1        0.1482
     23 C         143.2231  142.0915  166.3116 C.3     1  UNL1        0.0883
     24 O         141.5352  142.4080  171.7791 O.2     1  UNL1       -0.1730
     25 S         141.1951  142.3799  170.3184 S.O2    1  UNL1       -0.0100
     26 O         139.8193  142.4990  170.9040 O.2     1  UNL1       -0.1730
     27 C         140.3772  142.3931  169.0611 C.3     1  UNL1        0.1509
     28 C         141.0531  142.2969  167.7255 C.3     1  UNL1        0.0271
     29 C         142.5471  142.1876  167.6473 C.3     1  UNL1        0.0231
     30 C         143.3650  142.1744  168.9045 C.3     1  UNL1        0.0271
     31 C         142.6891  142.2705  170.2401 C.3     1  UNL1        0.1509
@<TRIPOS>BOND
     1    24    25    2
     2    25    26    2
     3    25    27    1
     4    27    28    1
     5    28    29    1
     6    29    23    1
     7    23    21    1
     8    21     1    1
     9     1     2   ar
    10     2     3   ar
    11     3     4   ar
    12     4     5   ar
    13     5     6   ar
    14     6     7   ar
    15     7    10    1
    16    10    11   ar
    17    11    12   ar
    18    12    13   ar
    19    13    14   ar
    20    14    16    1
    21    16    17    1
    22    17    18    1
    23    17    19    1
    24    17    20    1
    25    14    15   ar
    26     7     8   ar
    27     8     9   ar
    28    29    30    1
    29    30    31    1
    30    31    25    1
    31     9     1   ar
    32     8     4   ar
    33    15    10   ar
    34    21    22    1
@<TRIPOS>MOLECULE
*****
 31 34 0 0 0
SMALL
GASTEIGER

@<TRIPOS>ATOM
      1 C         143.8151  143.1158  164.3358 C.ar    1  UNL1        0.1488
      2 C         143.7845  144.4659  163.6829 C.ar    1  UNL1        0.0390
      3 C         142.4830  145.1959  163.5304 C.ar    1  UNL1        0.0417
      4 C         141.2122  144.5758  164.0308 C.ar    1  UNL1        0.1640
      5 N         139.7902  145.0534  164.0201 N.ar    1  UNL1       -0.2234
      6 C         138.9421  143.9985  164.6664 C.ar    1  UNL1        0.1197
      7 C         139.8398  142.8689  165.0765 C.ar    1  UNL1        0.1037
      8 N         141.2428  143.2257  164.6837 N.ar    1  UNL1       -0.2096
      9 N         142.5442  142.4957  164.8362 N.ar    1  UNL1       -0.1489
     10 C         139.4100  141.6045  165.7595 C.ar    1  UNL1        0.0223
     11 C         138.4840  140.6527  165.0619 C.ar    1  UNL1        0.0017
     12 C         138.0542  139.3883  165.7449 C.ar    1  UNL1        0.0032
     13 C         138.5503  139.0756  167.1255 C.ar    1  UNL1        0.0372
     14 C         139.4763  140.0273  167.8230 C.ar    1  UNL1        0.1469
     15 C         139.9061  141.2918  167.1400 C.ar    1  UNL1        0.0387
     16 O         139.9725  139.7147  169.2037 O.3     1  UNL1       -0.4045
     17 C         140.1202  140.8133  170.2143 C.3     1  UNL1        0.5753
     18 F         140.2680  141.9119  171.2249 F       1  UNL1       -0.1328
     19 F         138.6401  141.0525  170.1706 F       1  UNL1       -0.1328
     20 F         141.6005  140.5740  170.2579 F       1  UNL1       -0.1328
     21 N         145.1166  142.3857  164.4883 N.pl3   1  UNL1       -0.3168
     22 H         145.7717  142.6826  165.1605 H       1  UNL1        0.1482
     23 C         145.4199  141.2033  163.6166 C.3     1  UNL1        0.0883
     24 O         141.4137  137.1055  163.6140 O.2     1  UNL1       -0.1730
     25 S         142.2561  138.0933  162.8627 S.O2    1  UNL1       -0.0100
     26 O         141.4828  137.4929  161.7263 O.2     1  UNL1       -0.1730
     27 C         142.8299  138.8726  161.7166 C.3     1  UNL1        0.1509
     28 C         143.8845  139.9093  161.9679 C.3     1  UNL1        0.0271
     29 C         144.3652  140.1666  163.3652 C.3     1  UNL1        0.0231
     30 C         143.7914  139.3873  164.5113 C.3     1  UNL1        0.0271
     31 C         142.7369  138.3507  164.2600 C.3     1  UNL1        0.1509
@<TRIPOS>BOND
     1    24    25    2
     2    25    26    2
     3    25    27    1
     4    27    28    1
     5    28    29    1
     6    29    23    1
     7    23    21    1
     8    21     1    1
     9     1     2   ar
    10     2     3   ar
    11     3     4   ar
    12     4     5   ar
    13     5     6   ar
    14     6     7   ar
    15     7    10    1
    16    10    11   ar
    17    11    12   ar
    18    12    13   ar
    19    13    14   ar
    20    14    16    1
    21    16    17    1
    22    17    18    1
    23    17    19    1
    24    17    20    1
    25    14    15   ar
    26     7     8   ar
    27     8     9   ar
    28    29    30    1
    29    30    31    1
    30    31    25    1
    31     9     1   ar
    32     8     4   ar
    33    15    10   ar
    34    21    22    1
@<TRIPOS>MOLECULE
*****
 31 34 0 0 0
SMALL
GASTEIGER

@<TRIPOS>ATOM
      1 C         143.8164  140.2123  163.9003 C.ar    1  UNL1        0.1488
      2 C         145.2027  140.6318  163.5105 C.ar    1  UNL1        0.0390
      3 C         145.4650  142.0437  163.0771 C.ar    1  UNL1        0.0417
      4 C         144.3409  143.0359  163.0335 C.ar    1  UNL1        0.1640
      5 N         144.2961  144.4857  162.6511 N.ar    1  UNL1       -0.2234
      6 C         142.8821  144.9621  162.8046 C.ar    1  UNL1        0.1197
      7 C         142.0530  143.8068  163.2819 C.ar    1  UNL1        0.1037
      8 N         142.9546  142.6163  163.4233 N.ar    1  UNL1       -0.2096
      9 N         142.6923  141.2045  163.8568 N.ar    1  UNL1       -0.1489
     10 C         140.5807  143.8366  163.5675 C.ar    1  UNL1        0.0223
     11 C         140.0376  144.7694  164.6091 C.ar    1  UNL1        0.0017
     12 C         138.5653  144.7992  164.8947 C.ar    1  UNL1        0.0032
     13 C         137.6362  143.8963  164.1389 C.ar    1  UNL1        0.0372
     14 C         138.1794  142.9634  163.0973 C.ar    1  UNL1        0.1469
     15 C         139.6516  142.9336  162.8117 C.ar    1  UNL1        0.0387
     16 O         137.2502  142.0604  162.3414 O.3     1  UNL1       -0.4045
     17 C         137.4557  140.5749  162.3752 C.3     1  UNL1        0.5753
     18 F         137.6611  139.0894  162.4091 F       1  UNL1       -0.1328
     19 F         137.3964  140.5326  160.8770 F       1  UNL1       -0.1328
     20 F         137.5150  140.6173  163.8735 F       1  UNL1       -0.1328
     21 N         143.5541  138.8003  164.3338 N.pl3   1  UNL1       -0.3168
     22 H         144.2481  138.2970  164.8178 H       1  UNL1        0.1482
     23 C         142.2345  138.1554  164.0297 C.3     1  UNL1        0.0883
     24 O         138.3961  139.4744  168.0756 O.2     1  UNL1       -0.1730
     25 S         138.7377  138.7745  166.7936 S.O2    1  UNL1       -0.0100
     26 O         137.2934  138.3907  166.9231 O.2     1  UNL1       -0.1730
     27 C         138.5776  137.9412  165.5567 C.3     1  UNL1        0.1509
     28 C         139.7432  137.7349  164.6354 C.3     1  UNL1        0.0271
     29 C         141.0688  138.3617  164.9510 C.3     1  UNL1        0.0231
     30 C         141.2289  139.1950  166.1880 C.3     1  UNL1        0.0271
     31 C         140.0633  139.4014  167.1093 C.3     1  UNL1        0.1509
@<TRIPOS>BOND
     1    24    25    2
     2    25    26    2
     3    25    27    1
     4    27    28    1
     5    28    29    1
     6    29    23    1
     7    23    21    1
     8    21     1    1
     9     1     2   ar
    10     2     3   ar
    11     3     4   ar
    12     4     5   ar
    13     5     6   ar
    14     6     7   ar
    15     7    10    1
    16    10    11   ar
    17    11    12   ar
    18    12    13   ar
    19    13    14   ar
    20    14    16    1
    21    16    17    1
    22    17    18    1
    23    17    19    1
    24    17    20    1
    25    14    15   ar
    26     7     8   ar
    27     8     9   ar
    28    29    30    1
    29    30    31    1
    30    31    25    1
    31     9     1   ar
    32     8     4   ar
    33    15    10   ar
    34    21    22    1
@<TRIPOS>MOLECULE
*****
 31 34 0 0 0
SMALL
GASTEIGER

@<TRIPOS>ATOM
      1 C         139.9233  145.0151  163.2126 C.ar    1  UNL1        0.1488
      2 C         139.5425  145.7752  161.9769 C.ar    1  UNL1        0.0390
      3 C         140.3123  145.5735  160.7053 C.ar    1  UNL1        0.0417
      4 C         141.4628  144.6118  160.6696 C.ar    1  UNL1        0.1640
      5 N         142.3996  144.2079  159.5698 N.ar    1  UNL1       -0.2234
      6 C         143.3593  143.1982  160.1260 C.ar    1  UNL1        0.1197
      7 C         143.0158  142.9781  161.5694 C.ar    1  UNL1        0.1037
      8 N         141.8436  143.8517  161.9054 N.ar    1  UNL1       -0.2096
      9 N         141.0739  144.0534  163.1769 N.ar    1  UNL1       -0.1489
     10 C         143.7205  142.0476  162.5115 C.ar    1  UNL1        0.0223
     11 C         145.1886  142.2132  162.7709 C.ar    1  UNL1        0.0017
     12 C         145.8934  141.2827  163.7130 C.ar    1  UNL1        0.0032
     13 C         145.1302  140.1868  164.3958 C.ar    1  UNL1        0.0372
     14 C         143.6621  140.0212  164.1364 C.ar    1  UNL1        0.1469
     15 C         142.9573  140.9516  163.1943 C.ar    1  UNL1        0.0387
     16 O         142.8987  138.9252  164.8192 O.3     1  UNL1       -0.4045
     17 C         142.8572  138.8608  166.3172 C.3     1  UNL1        0.5753
     18 F         142.8157  138.7963  167.8153 F       1  UNL1       -0.1328
     19 F         142.0092  140.0977  166.3469 F       1  UNL1       -0.1328
     20 F         143.7052  137.6238  166.2875 F       1  UNL1       -0.1328
     21 N         139.1536  145.2167  164.4842 N.pl3   1  UNL1       -0.3168
     22 H         139.3608  145.9810  165.0692 H       1  UNL1        0.1482
     23 C         138.0681  144.2539  164.8645 C.3     1  UNL1        0.0883
     24 O         137.8231  139.0651  162.4441 O.2     1  UNL1       -0.1730
     25 S         138.3084  139.9576  163.5478 S.O2    1  UNL1       -0.0100
     26 O         138.9164  138.6559  163.9790 O.2     1  UNL1       -0.1730
     27 C         139.0048  140.3979  164.8012 C.3     1  UNL1        0.1509
     28 C         138.9247  141.8300  165.2401 C.3     1  UNL1        0.0271
     29 C         138.1482  142.8217  164.4256 C.3     1  UNL1        0.0231
     30 C         137.4517  142.3814  163.1722 C.3     1  UNL1        0.0271
     31 C         137.5318  140.9493  162.7333 C.3     1  UNL1        0.1509
@<TRIPOS>BOND
     1    24    25    2
     2    25    26    2
     3    25    27    1
     4    27    28    1
     5    28    29    1
     6    29    23    1
     7    23    21    1
     8    21     1    1
     9     1     2   ar
    10     2     3   ar
    11     3     4   ar
    12     4     5   ar
    13     5     6   ar
    14     6     7   ar
    15     7    10    1
    16    10    11   ar
    17    11    12   ar
    18    12    13   ar
    19    13    14   ar
    20    14    16    1
    21    16    17    1
    22    17    18    1
    23    17    19    1
    24    17    20    1
    25    14    15   ar
    26     7     8   ar
    27     8     9   ar
    28    29    30    1
    29    30    31    1
    30    31    25    1
    31     9     1   ar
    32     8     4   ar
    33    15    10   ar
    34    21    22    1
@<TRIPOS>MOLECULE
*****
 31 34 0 0 0
SMALL
GASTEIGER

@<TRIPOS>ATOM
      1 C         139.4812  143.9344  163.5381 C.ar    1  UNL1        0.1488
      2 C         138.4648  143.5611  162.5001 C.ar    1  UNL1        0.0390
      3 C         137.8651  142.1862  162.4982 C.ar    1  UNL1        0.0417
      4 C         138.2820  141.1846  163.5341 C.ar    1  UNL1        0.1640
      5 N         137.8674  139.7643  163.7811 N.ar    1  UNL1       -0.2234
      6 C         138.6277  139.2599  164.9717 C.ar    1  UNL1        0.1197
      7 C         139.5121  140.3685  165.4605 C.ar    1  UNL1        0.1037
      8 N         139.2984  141.5580  164.5721 N.ar    1  UNL1       -0.2096
      9 N         139.8980  142.9329  164.5740 N.ar    1  UNL1       -0.1489
     10 C         140.4462  140.2996  166.6321 C.ar    1  UNL1        0.0223
     11 C         141.6772  139.4455  166.5607 C.ar    1  UNL1        0.0017
     12 C         142.6113  139.3766  167.7324 C.ar    1  UNL1        0.0032
     13 C         142.3145  140.1619  168.9754 C.ar    1  UNL1        0.0372
     14 C         141.0835  141.0161  169.0468 C.ar    1  UNL1        0.1469
     15 C         140.1494  141.0849  167.8752 C.ar    1  UNL1        0.0387
     16 O         140.7866  141.8015  170.2899 O.3     1  UNL1       -0.4045
     17 C         140.5321  143.2771  170.2019 C.3     1  UNL1        0.5753
     18 F         140.2776  144.7528  170.1138 F       1  UNL1       -0.1328
     19 F         139.2049  143.0883  170.8748 F       1  UNL1       -0.1328
     20 F         141.8594  143.4658  169.5289 F       1  UNL1       -0.1328
     21 N         140.0809  145.3094  163.5401 N.pl3   1  UNL1       -0.3168
     22 H         139.6353  146.0400  164.0268 H       1  UNL1        0.1482
     23 C         141.3594  145.5711  162.8007 C.3     1  UNL1        0.0883
     24 O         145.7193  142.0740  164.0671 O.2     1  UNL1       -0.1730
     25 S         144.7528  142.6272  163.0622 S.O2    1  UNL1       -0.0100
     26 O         145.5194  141.6770  162.1907 O.2     1  UNL1       -0.1730
     27 C         144.0527  142.8504  161.7545 C.3     1  UNL1        0.1509
     28 C         142.9215  143.8317  161.6674 C.3     1  UNL1        0.0271
     29 C         142.4906  144.5897  162.8878 C.3     1  UNL1        0.0231
     30 C         143.1908  144.3666  164.1955 C.3     1  UNL1        0.0271
     31 C         144.3219  143.3853  164.2826 C.3     1  UNL1        0.1509
@<TRIPOS>BOND
     1    24    25    2
     2    25    26    2
     3    25    27    1
     4    27    28    1
     5    28    29    1
     6    29    23    1
     7    23    21    1
     8    21     1    1
     9     1     2   ar
    10     2     3   ar
    11     3     4   ar
    12     4     5   ar
    13     5     6   ar
    14     6     7   ar
    15     7    10    1
    16    10    11   ar
    17    11    12   ar
    18    12    13   ar
    19    13    14   ar
    20    14    16    1
    21    16    17    1
    22    17    18    1
    23    17    19    1
    24    17    20    1
    25    14    15   ar
    26     7     8   ar
    27     8     9   ar
    28    29    30    1
    29    30    31    1
    30    31    25    1
    31     9     1   ar
    32     8     4   ar
    33    15    10   ar
    34    21    22    1
@<TRIPOS>MOLECULE
*****
 31 34 0 0 0
SMALL
GASTEIGER

@<TRIPOS>ATOM
      1 C         141.9975  138.9660  165.1838 C.ar    1  UNL1        0.1488
      2 C         141.7255  137.5240  164.8730 C.ar    1  UNL1        0.0390
      3 C         140.6246  137.1564  163.9228 C.ar    1  UNL1        0.0417
      4 C         139.7958  138.2308  163.2834 C.ar    1  UNL1        0.1640
      5 N         138.6520  138.1731  162.3145 N.ar    1  UNL1       -0.2234
      6 C         138.2172  139.5795  162.0266 C.ar    1  UNL1        0.1197
      7 C         139.0922  140.5063  162.8175 C.ar    1  UNL1        0.1037
      8 N         140.0678  139.6727  163.5943 N.ar    1  UNL1       -0.2096
      9 N         141.1686  140.0404  164.5444 N.ar    1  UNL1       -0.1489
     10 C         139.0066  142.0038  162.8296 C.ar    1  UNL1        0.0223
     11 C         137.7086  142.6783  163.1617 C.ar    1  UNL1        0.0017
     12 C         137.6231  144.1758  163.1738 C.ar    1  UNL1        0.0032
     13 C         138.8354  144.9989  162.8537 C.ar    1  UNL1        0.0372
     14 C         140.1335  144.3245  162.5216 C.ar    1  UNL1        0.1469
     15 C         140.2190  142.8270  162.5095 C.ar    1  UNL1        0.0387
     16 O         141.3460  145.1476  162.2014 O.3     1  UNL1       -0.4045
     17 C         142.6088  144.9606  162.9891 C.3     1  UNL1        0.5753
     18 F         143.8716  144.7735  163.7768 F       1  UNL1       -0.1328
     19 F         143.2014  144.1799  161.8536 F       1  UNL1       -0.1328
     20 F         142.0161  145.7413  164.1246 F       1  UNL1       -0.1328
     21 N         143.0984  139.3337  166.1340 N.pl3   1  UNL1       -0.3168
     22 H         143.9003  139.7986  165.8022 H       1  UNL1        0.1482
     23 C         142.9776  138.9931  167.5898 C.3     1  UNL1        0.0883
     24 O         140.6841  142.1277  171.8035 O.2     1  UNL1       -0.1730
     25 S         141.4123  142.0530  170.4943 S.O2    1  UNL1       -0.0100
     26 O         141.3412  143.5412  170.6684 O.2     1  UNL1       -0.1730
     27 C         142.1159  142.4953  169.2456 C.3     1  UNL1        0.1509
     28 C         142.6377  141.4753  168.2774 C.3     1  UNL1        0.0271
     29 C         142.4558  140.0131  168.5580 C.3     1  UNL1        0.0231
     30 C         141.7523  139.5709  169.8067 C.3     1  UNL1        0.0271
     31 C         141.2305  140.5908  170.7749 C.3     1  UNL1        0.1509
@<TRIPOS>BOND
     1    24    25    2
     2    25    26    2
     3    25    27    1
     4    27    28    1
     5    28    29    1
     6    29    23    1
     7    23    21    1
     8    21     1    1
     9     1     2   ar
    10     2     3   ar
    11     3     4   ar
    12     4     5   ar
    13     5     6   ar
    14     6     7   ar
    15     7    10    1
    16    10    11   ar
    17    11    12   ar
    18    12    13   ar
    19    13    14   ar
    20    14    16    1
    21    16    17    1
    22    17    18    1
    23    17    19    1
    24    17    20    1
    25    14    15   ar
    26     7     8   ar
    27     8     9   ar
    28    29    30    1
    29    30    31    1
    30    31    25    1
    31     9     1   ar
    32     8     4   ar
    33    15    10   ar
    34    21    22    1
