@<TRIPOS>MOLECULE
*****
 37 41 0 0 0
SMALL
GASTEIGER

@<TRIPOS>ATOM
      1 C         139.2468  139.6560  167.6202 C.ar    1  UNL1        0.2207
      2 N         138.9204  139.8689  169.0687 N.ar    1  UNL1       -0.2115
      3 C         139.8461  140.6690  169.9363 C.ar    1  UNL1        0.1098
      4 C         141.0982  141.2562  169.3555 C.ar    1  UNL1        0.0664
      5 S         142.1933  142.0837  169.9607 S.2     1  UNL1       -0.0833
      6 C         143.1964  142.3822  168.8863 C.ar    1  UNL1        0.0370
      7 C         142.7214  141.7392  167.6171 C.ar    1  UNL1        0.0248
      8 C         141.4247  141.0432  167.9071 C.ar    1  UNL1        0.0921
      9 N         140.4990  140.2431  167.0394 N.ar    1  UNL1       -0.2130
     10 C         143.4205  141.7841  166.2907 C.ar    1  UNL1        0.0032
     11 C         143.8513  143.1002  165.7141 C.ar    1  UNL1        0.0001
     12 C         144.5503  143.1451  164.3878 C.ar    1  UNL1        0.0013
     13 C         144.8186  141.8741  163.6378 C.ar    1  UNL1        0.0158
     14 C         144.3877  140.5580  164.2143 C.ar    1  UNL1        0.0644
     15 C         143.6887  140.5131  165.5407 C.ar    1  UNL1        0.0159
     16 N         144.6560  139.2868  163.4644 N.pl3   1  UNL1       -0.2187
     17 H         145.4976  138.7974  163.6105 H       1  UNL1        0.1734
     18 S         143.6419  138.7615  162.4920 S.O2    1  UNL1        0.0558
     19 C         142.6278  138.2362  161.5194 C.3     1  UNL1        0.1996
     20 O         144.3967  139.3967  161.3619 O.2     1  UNL1       -0.1544
     21 O         142.8872  138.1264  163.6220 O.2     1  UNL1       -0.1544
     22 N         138.3211  138.8559  166.7525 N.pl3   1  UNL1       -0.2825
     23 H         137.6593  138.2536  167.1630 H       1  UNL1        0.1551
     24 C         138.5690  139.2086  162.2732 C.ar    1  UNL1        0.0480
     25 C         138.0717  140.3641  163.0901 C.ar    1  UNL1        0.0158
     26 C         137.9891  140.2466  164.5832 C.ar    1  UNL1        0.0159
     27 C         138.4037  138.9734  165.2594 C.ar    1  UNL1        0.0505
     28 C         138.9010  137.8179  164.4425 C.ar    1  UNL1        0.0159
     29 C         138.9837  137.9355  162.9493 C.ar    1  UNL1        0.0158
     30 N         138.8169  139.5613  157.7939 N.3     1  UNL1       -0.2698
     31 C         139.6268  138.5217  158.5103 C.3     1  UNL1        0.0938
     32 C         139.5442  138.4041  160.0035 C.3     1  UNL1        0.1081
     33 N         138.6517  139.3261  160.7801 N.pl3   1  UNL1       -0.3046
     34 C         137.8417  140.3657  160.0637 C.3     1  UNL1        0.1081
     35 C         137.9243  140.4833  158.5706 C.3     1  UNL1        0.0938
     36 C         137.8612  140.4599  155.5514 C.3     1  UNL1        0.0188
     37 C         138.8996  139.6788  156.3008 C.3     1  UNL1        0.0722
@<TRIPOS>BOND
     1    36    37    1
     2    37    30    1
     3    30    31    1
     4    31    32    1
     5    32    33    1
     6    33    24    1
     7    24    25   ar
     8    25    26   ar
     9    26    27   ar
    10    27    22    1
    11    22     1    1
    12     1     2   ar
    13     2     3   ar
    14     3     4   ar
    15     4     5   ar
    16     5     6   ar
    17     6     7   ar
    18     7    10    1
    19    10    11   ar
    20    11    12   ar
    21    12    13   ar
    22    13    14   ar
    23    14    16    1
    24    16    18    1
    25    18    19    1
    26    18    20    2
    27    18    21    2
    28    14    15   ar
    29     7     8   ar
    30     8     9   ar
    31    27    28   ar
    32    28    29   ar
    33    33    34    1
    34    34    35    1
    35    35    30    1
    36    29    24   ar
    37     9     1   ar
    38     8     4   ar
    39    15    10   ar
    40    22    23    1
    41    16    17    1
@<TRIPOS>MOLECULE
*****
 37 41 0 0 0
SMALL
GASTEIGER

@<TRIPOS>ATOM
      1 C         142.6636  139.3072  166.9799 C.ar    1  UNL1        0.2207
      2 N         143.0644  139.3351  168.4251 N.ar    1  UNL1       -0.2115
      3 C         142.5639  140.4290  169.3212 C.ar    1  UNL1        0.1098
      4 C         141.6627  141.4949  168.7721 C.ar    1  UNL1        0.0664
      5 S         141.0169  142.6895  169.4093 S.2     1  UNL1       -0.0833
      6 C         140.2169  143.3999  168.3579 C.ar    1  UNL1        0.0370
      7 C         140.3683  142.6443  167.0710 C.ar    1  UNL1        0.0248
      8 C         141.2619  141.4670  167.3269 C.ar    1  UNL1        0.0921
      9 N         141.7623  140.3732  166.4309 N.ar    1  UNL1       -0.2130
     10 C         139.7371  143.0031  165.7584 C.ar    1  UNL1        0.0032
     11 C         138.6046  142.1794  165.2208 C.ar    1  UNL1        0.0001
     12 C         137.9734  142.5382  163.9082 C.ar    1  UNL1        0.0013
     13 C         138.4745  143.7207  163.1333 C.ar    1  UNL1        0.0158
     14 C         139.6069  144.5444  163.6710 C.ar    1  UNL1        0.0644
     15 C         140.2382  144.1856  164.9835 C.ar    1  UNL1        0.0159
     16 N         140.1081  145.7270  162.8960 N.pl3   1  UNL1       -0.2187
     17 H         140.3092  146.5710  163.3612 H       1  UNL1        0.1734
     18 S         140.3029  145.6235  161.4123 S.O2    1  UNL1        0.0558
     19 C         140.4977  145.5200  159.9286 C.3     1  UNL1        0.1996
     20 O         141.4725  144.7098  161.6296 O.2     1  UNL1       -0.1544
     21 O         139.1333  146.5372  161.1951 O.2     1  UNL1       -0.1544
     22 N         143.1640  138.2134  166.0837 N.pl3   1  UNL1       -0.2825
     23 H         143.7358  137.5003  166.4495 H       1  UNL1        0.1551
     24 C         142.0517  138.1912  161.7234 C.ar    1  UNL1        0.0480
     25 C         141.1567  137.5297  162.7291 C.ar    1  UNL1        0.0158
     26 C         141.5275  137.5371  164.1825 C.ar    1  UNL1        0.0159
     27 C         142.7933  138.2060  164.6303 C.ar    1  UNL1        0.0505
     28 C         143.6883  138.8675  163.6246 C.ar    1  UNL1        0.0159
     29 C         143.3175  138.8601  162.1711 C.ar    1  UNL1        0.0158
     30 N         140.9395  138.1691  157.3631 N.3     1  UNL1       -0.2698
     31 C         139.9099  138.5138  158.3980 C.3     1  UNL1        0.0938
     32 C         140.2806  138.5211  159.8515 C.3     1  UNL1        0.1081
     33 N         141.6810  138.1839  160.2700 N.pl3   1  UNL1       -0.3046
     34 C         142.7106  137.8392  159.2351 C.3     1  UNL1        0.1081
     35 C         142.3399  137.8318  157.7817 C.3     1  UNL1        0.0938
     36 C         140.0960  136.8937  155.2627 C.3     1  UNL1        0.0188
     37 C         140.5687  138.1618  155.9097 C.3     1  UNL1        0.0722
@<TRIPOS>BOND
     1    36    37    1
     2    37    30    1
     3    30    31    1
     4    31    32    1
     5    32    33    1
     6    33    24    1
     7    24    25   ar
     8    25    26   ar
     9    26    27   ar
    10    27    22    1
    11    22     1    1
    12     1     2   ar
    13     2     3   ar
    14     3     4   ar
    15     4     5   ar
    16     5     6   ar
    17     6     7   ar
    18     7    10    1
    19    10    11   ar
    20    11    12   ar
    21    12    13   ar
    22    13    14   ar
    23    14    16    1
    24    16    18    1
    25    18    19    1
    26    18    20    2
    27    18    21    2
    28    14    15   ar
    29     7     8   ar
    30     8     9   ar
    31    27    28   ar
    32    28    29   ar
    33    33    34    1
    34    34    35    1
    35    35    30    1
    36    29    24   ar
    37     9     1   ar
    38     8     4   ar
    39    15    10   ar
    40    22    23    1
    41    16    17    1
@<TRIPOS>MOLECULE
*****
 37 41 0 0 0
SMALL
GASTEIGER

@<TRIPOS>ATOM
      1 C         143.2945  142.5844  167.3076 C.ar    1  UNL1        0.2207
      2 N         143.4740  142.5760  168.7968 N.ar    1  UNL1       -0.2115
      3 C         142.4719  141.8797  169.6690 C.ar    1  UNL1        0.1098
      4 C         141.2903  141.1918  169.0520 C.ar    1  UNL1        0.0664
      5 S         140.1466  140.4291  169.6525 S.2     1  UNL1       -0.0833
      6 C         139.2603  139.9662  168.5344 C.ar    1  UNL1        0.0370
      7 C         139.8562  140.4428  167.2429 C.ar    1  UNL1        0.0248
      8 C         141.1108  141.2002  167.5629 C.ar    1  UNL1        0.0921
      9 N         142.1129  141.8966  166.6907 N.ar    1  UNL1       -0.2130
     10 C         139.2960  140.2039  165.8721 C.ar    1  UNL1        0.0032
     11 C         139.2630  138.8148  165.3070 C.ar    1  UNL1        0.0001
     12 C         138.7027  138.5759  163.9363 C.ar    1  UNL1        0.0013
     13 C         138.1754  139.7260  163.1306 C.ar    1  UNL1        0.0158
     14 C         138.2084  141.1151  163.6957 C.ar    1  UNL1        0.0644
     15 C         138.7687  141.3540  165.0665 C.ar    1  UNL1        0.0159
     16 N         137.6811  142.2653  162.8900 N.pl3   1  UNL1       -0.2187
     17 H         136.8195  142.1836  162.4208 H       1  UNL1        0.1734
     18 S         138.4667  143.5399  162.7992 S.O2    1  UNL1        0.0558
     19 C         139.2523  144.8146  162.7083 C.3     1  UNL1        0.1996
     20 O         139.4915  142.8478  161.9503 O.2     1  UNL1       -0.1544
     21 O         137.4418  144.2320  163.6481 O.2     1  UNL1       -0.1544
     22 N         144.2967  143.2808  166.4353 N.pl3   1  UNL1       -0.2825
     23 H         145.0507  143.7658  166.8422 H       1  UNL1        0.1551
     24 C         143.8568  143.1529  161.9587 C.ar    1  UNL1        0.0480
     25 C         144.7440  142.1630  162.6537 C.ar    1  UNL1        0.0158
     26 C         144.8906  142.2056  164.1459 C.ar    1  UNL1        0.0159
     27 C         144.1501  143.2382  164.9431 C.ar    1  UNL1        0.0505
     28 C         143.2630  144.2281  164.2481 C.ar    1  UNL1        0.0159
     29 C         143.1164  144.1855  162.7558 C.ar    1  UNL1        0.0158
     30 N         143.4170  143.0251  157.4821 N.3     1  UNL1       -0.2698
     31 C         142.3354  143.6331  158.3249 C.3     1  UNL1        0.0938
     32 C         142.4820  143.6757  159.8171 C.3     1  UNL1        0.1081
     33 N         143.7102  143.1103  160.4665 N.pl3   1  UNL1       -0.3046
     34 C         144.7919  142.5023  159.6236 C.3     1  UNL1        0.1081
     35 C         144.6453  142.4597  158.1314 C.3     1  UNL1        0.0938
     36 C         144.4707  142.7350  155.1251 C.3     1  UNL1        0.0188
     37 C         143.2704  142.9825  155.9899 C.3     1  UNL1        0.0722
@<TRIPOS>BOND
     1    36    37    1
     2    37    30    1
     3    30    31    1
     4    31    32    1
     5    32    33    1
     6    33    24    1
     7    24    25   ar
     8    25    26   ar
     9    26    27   ar
    10    27    22    1
    11    22     1    1
    12     1     2   ar
    13     2     3   ar
    14     3     4   ar
    15     4     5   ar
    16     5     6   ar
    17     6     7   ar
    18     7    10    1
    19    10    11   ar
    20    11    12   ar
    21    12    13   ar
    22    13    14   ar
    23    14    16    1
    24    16    18    1
    25    18    19    1
    26    18    20    2
    27    18    21    2
    28    14    15   ar
    29     7     8   ar
    30     8     9   ar
    31    27    28   ar
    32    28    29   ar
    33    33    34    1
    34    34    35    1
    35    35    30    1
    36    29    24   ar
    37     9     1   ar
    38     8     4   ar
    39    15    10   ar
    40    22    23    1
    41    16    17    1
@<TRIPOS>MOLECULE
*****
 37 41 0 0 0
SMALL
GASTEIGER

@<TRIPOS>ATOM
      1 C         139.3610  139.7892  167.0109 C.ar    1  UNL1        0.2207
      2 N         139.2083  139.8088  168.5029 N.ar    1  UNL1       -0.2115
      3 C         140.2239  140.5147  169.3515 C.ar    1  UNL1        0.1098
      4 C         141.3922  141.2011  168.7081 C.ar    1  UNL1        0.0664
      5 S         142.5442  141.9717  169.2819 S.2     1  UNL1       -0.0833
      6 C         143.4088  142.4283  168.1444 C.ar    1  UNL1        0.0370
      7 C         142.7912  141.9400  166.8676 C.ar    1  UNL1        0.0248
      8 C         141.5449  141.1815  167.2160 C.ar    1  UNL1        0.0921
      9 N         140.5293  140.4756  166.3674 N.ar    1  UNL1       -0.2130
     10 C         143.3260  142.1697  165.4852 C.ar    1  UNL1        0.0032
     11 C         144.2609  141.1726  164.8673 C.ar    1  UNL1        0.0001
     12 C         144.7957  141.4024  163.4849 C.ar    1  UNL1        0.0013
     13 C         144.3957  142.6292  162.7202 C.ar    1  UNL1        0.0158
     14 C         143.4608  143.6263  163.3381 C.ar    1  UNL1        0.0644
     15 C         142.9260  143.3966  164.7205 C.ar    1  UNL1        0.0159
     16 N         143.0606  144.8533  162.5734 N.pl3   1  UNL1       -0.2187
     17 H         143.6405  145.6489  162.5809 H       1  UNL1        0.1734
     18 S         141.7771  144.8680  161.7973 S.O2    1  UNL1        0.0558
     19 C         140.4936  144.8827  161.0211 C.3     1  UNL1        0.1996
     20 O         142.4886  144.2900  160.6099 O.2     1  UNL1       -0.1544
     21 O         141.0658  145.4460  162.9847 O.2     1  UNL1       -0.1544
     22 N         138.3453  139.0833  166.1622 N.pl3   1  UNL1       -0.2825
     23 H         137.6220  138.5676  166.5867 H       1  UNL1        0.1551
     24 C         138.6046  139.3224  161.6761 C.ar    1  UNL1        0.0480
     25 C         138.1207  140.5039  162.4634 C.ar    1  UNL1        0.0158
     26 C         138.0343  140.4242  163.9587 C.ar    1  UNL1        0.0159
     27 C         138.4318  139.1630  164.6669 C.ar    1  UNL1        0.0505
     28 C         138.9157  137.9815  163.8795 C.ar    1  UNL1        0.0159
     29 C         139.0021  138.0612  162.3841 C.ar    1  UNL1        0.0158
     30 N         138.8639  139.5615  157.1899 N.3     1  UNL1       -0.2698
     31 C         137.9400  140.4765  157.9376 C.3     1  UNL1        0.0938
     32 C         137.8535  140.3968  159.4330 C.3     1  UNL1        0.1081
     33 N         138.6910  139.4021  160.1807 N.pl3   1  UNL1       -0.3046
     34 C         139.6150  138.4871  159.4330 C.3     1  UNL1        0.1081
     35 C         139.7015  138.5668  157.9376 C.3     1  UNL1        0.0938
     36 C         138.5514  138.4629  154.8564 C.3     1  UNL1        0.0188
     37 C         138.9504  139.6412  155.6946 C.3     1  UNL1        0.0722
@<TRIPOS>BOND
     1    36    37    1
     2    37    30    1
     3    30    31    1
     4    31    32    1
     5    32    33    1
     6    33    24    1
     7    24    25   ar
     8    25    26   ar
     9    26    27   ar
    10    27    22    1
    11    22     1    1
    12     1     2   ar
    13     2     3   ar
    14     3     4   ar
    15     4     5   ar
    16     5     6   ar
    17     6     7   ar
    18     7    10    1
    19    10    11   ar
    20    11    12   ar
    21    12    13   ar
    22    13    14   ar
    23    14    16    1
    24    16    18    1
    25    18    19    1
    26    18    20    2
    27    18    21    2
    28    14    15   ar
    29     7     8   ar
    30     8     9   ar
    31    27    28   ar
    32    28    29   ar
    33    33    34    1
    34    34    35    1
    35    35    30    1
    36    29    24   ar
    37     9     1   ar
    38     8     4   ar
    39    15    10   ar
    40    22    23    1
    41    16    17    1
@<TRIPOS>MOLECULE
*****
 37 41 0 0 0
SMALL
GASTEIGER

@<TRIPOS>ATOM
      1 C         142.8025  138.4737  160.1805 C.ar    1  UNL1        0.2207
      2 N         142.8736  138.0335  158.7483 N.ar    1  UNL1       -0.2115
      3 C         143.0548  139.0493  157.6597 C.ar    1  UNL1        0.1098
      4 C         143.1649  140.5053  158.0031 C.ar    1  UNL1        0.0664
      5 S         143.3469  141.7266  157.1513 S.2     1  UNL1       -0.0833
      6 C         143.3882  142.9215  158.0571 C.ar    1  UNL1        0.0370
      7 C         143.2318  142.4387  159.4687 C.ar    1  UNL1        0.0248
      8 C         143.0938  140.9455  159.4353 C.ar    1  UNL1        0.0921
      9 N         142.9126  139.9297  160.5240 N.ar    1  UNL1       -0.2130
     10 C         143.2162  143.2983  160.6978 C.ar    1  UNL1        0.0032
     11 C         144.4006  143.3127  161.6181 C.ar    1  UNL1        0.0001
     12 C         144.3849  144.1723  162.8473 C.ar    1  UNL1        0.0013
     13 C         143.1849  145.0176  163.1562 C.ar    1  UNL1        0.0158
     14 C         142.0005  145.0033  162.2358 C.ar    1  UNL1        0.0644
     15 C         142.0162  144.1437  161.0067 C.ar    1  UNL1        0.0159
     16 N         140.8004  145.8486  162.5447 N.pl3   1  UNL1       -0.2187
     17 H         140.8907  146.8269  162.6086 H       1  UNL1        0.1734
     18 S         139.4629  145.2034  162.7561 S.O2    1  UNL1        0.0558
     19 C         138.1253  144.5582  162.9675 C.3     1  UNL1        0.1996
     20 O         139.9567  144.5998  164.0375 O.2     1  UNL1       -0.1544
     21 O         138.9692  145.8070  161.4747 O.2     1  UNL1       -0.1544
     22 N         142.6212  137.4579  161.2693 N.pl3   1  UNL1       -0.2825
     23 H         142.6723  136.4973  161.0597 H       1  UNL1        0.1551
     24 C         141.8441  138.8012  165.4932 C.ar    1  UNL1        0.0480
     25 C         143.1756  139.0656  164.8550 C.ar    1  UNL1        0.0158
     26 C         143.4347  138.6178  163.4471 C.ar    1  UNL1        0.0159
     27 C         142.3622  137.9056  162.6772 C.ar    1  UNL1        0.0505
     28 C         141.0307  137.6413  163.3153 C.ar    1  UNL1        0.0159
     29 C         140.7717  138.0891  164.7234 C.ar    1  UNL1        0.0158
     30 N         141.0670  140.1445  169.7171 N.3     1  UNL1       -0.2698
     31 C         142.4365  139.6815  169.3174 C.3     1  UNL1        0.0938
     32 C         142.6956  139.2337  167.9093 C.3     1  UNL1        0.1081
     33 N         141.5851  139.2490  166.9011 N.pl3   1  UNL1       -0.3046
     34 C         140.2155  139.7120  167.3009 C.3     1  UNL1        0.1081
     35 C         139.9564  140.1598  168.7089 C.3     1  UNL1        0.0938
     36 C         140.6061  142.0483  171.4239 C.3     1  UNL1        0.0188
     37 C         140.8079  140.5923  171.1250 C.3     1  UNL1        0.0722
@<TRIPOS>BOND
     1    36    37    1
     2    37    30    1
     3    30    31    1
     4    31    32    1
     5    32    33    1
     6    33    24    1
     7    24    25   ar
     8    25    26   ar
     9    26    27   ar
    10    27    22    1
    11    22     1    1
    12     1     2   ar
    13     2     3   ar
    14     3     4   ar
    15     4     5   ar
    16     5     6   ar
    17     6     7   ar
    18     7    10    1
    19    10    11   ar
    20    11    12   ar
    21    12    13   ar
    22    13    14   ar
    23    14    16    1
    24    16    18    1
    25    18    19    1
    26    18    20    2
    27    18    21    2
    28    14    15   ar
    29     7     8   ar
    30     8     9   ar
    31    27    28   ar
    32    28    29   ar
    33    33    34    1
    34    34    35    1
    35    35    30    1
    36    29    24   ar
    37     9     1   ar
    38     8     4   ar
    39    15    10   ar
    40    22    23    1
    41    16    17    1
@<TRIPOS>MOLECULE
*****
 37 41 0 0 0
SMALL
GASTEIGER

@<TRIPOS>ATOM
      1 C         138.6967  139.4520  167.1971 C.ar    1  UNL1        0.2207
      2 N         138.2477  139.3243  168.6226 N.ar    1  UNL1       -0.2115
      3 C         138.8631  140.1884  169.6830 C.ar    1  UNL1        0.1098
      4 C         139.9275  141.1803  169.3180 C.ar    1  UNL1        0.0664
      5 S         140.7111  142.1599  170.1404 S.2     1  UNL1       -0.0833
      6 C         141.6445  142.8930  169.2231 C.ar    1  UNL1        0.0370
      7 C         141.4377  142.3665  167.8339 C.ar    1  UNL1        0.0248
      8 C         140.3765  141.3080  167.8925 C.ar    1  UNL1        0.0921
      9 N         139.7611  140.4439  166.8321 N.ar    1  UNL1       -0.2130
     10 C         142.1644  142.8191  166.6022 C.ar    1  UNL1        0.0032
     11 C         143.6636  142.7883  166.5621 C.ar    1  UNL1        0.0001
     12 C         144.3903  143.2408  165.3304 C.ar    1  UNL1        0.0013
     13 C         143.6180  143.7242  164.1388 C.ar    1  UNL1        0.0158
     14 C         142.1188  143.7550  164.1790 C.ar    1  UNL1        0.0644
     15 C         141.3921  143.3024  165.4107 C.ar    1  UNL1        0.0159
     16 N         141.3464  144.2384  162.9874 N.pl3   1  UNL1       -0.2187
     17 H         141.7566  144.8777  162.3611 H       1  UNL1        0.1734
     18 S         139.9490  143.7477  162.7500 S.O2    1  UNL1        0.0558
     19 C         138.5515  143.2569  162.5126 C.3     1  UNL1        0.1996
     20 O         140.4939  142.4688  162.1863 O.2     1  UNL1       -0.1544
     21 O         139.4041  145.0265  163.3138 O.2     1  UNL1       -0.1544
     22 N         138.0813  138.5879  166.1366 N.pl3   1  UNL1       -0.2825
     23 H         137.2677  138.0701  166.3344 H       1  UNL1        0.1551
     24 C         139.9540  138.3625  162.0510 C.ar    1  UNL1        0.0480
     25 C         140.4168  137.4407  163.1401 C.ar    1  UNL1        0.0158
     26 C         139.7926  137.5158  164.5019 C.ar    1  UNL1        0.0159
     27 C         138.7055  138.5128  164.7748 C.ar    1  UNL1        0.0505
     28 C         138.2427  139.4346  163.6857 C.ar    1  UNL1        0.0159
     29 C         138.8670  139.3594  162.3238 C.ar    1  UNL1        0.0158
     30 N         141.8266  138.1371  157.9654 N.3     1  UNL1       -0.2698
     31 C         142.6781  137.9806  159.1903 C.3     1  UNL1        0.0938
     32 C         142.0539  138.0557  160.5522 C.3     1  UNL1        0.1081
     33 N         140.5782  138.2873  160.6892 N.pl3   1  UNL1       -0.3046
     34 C         139.7267  138.4439  159.4641 C.3     1  UNL1        0.1081
     35 C         140.3509  138.3687  158.1023 C.3     1  UNL1        0.0938
     36 C         142.6344  136.7318  155.9350 C.3     1  UNL1        0.0188
     37 C         142.4508  138.0620  156.6035 C.3     1  UNL1        0.0722
@<TRIPOS>BOND
     1    36    37    1
     2    37    30    1
     3    30    31    1
     4    31    32    1
     5    32    33    1
     6    33    24    1
     7    24    25   ar
     8    25    26   ar
     9    26    27   ar
    10    27    22    1
    11    22     1    1
    12     1     2   ar
    13     2     3   ar
    14     3     4   ar
    15     4     5   ar
    16     5     6   ar
    17     6     7   ar
    18     7    10    1
    19    10    11   ar
    20    11    12   ar
    21    12    13   ar
    22    13    14   ar
    23    14    16    1
    24    16    18    1
    25    18    19    1
    26    18    20    2
    27    18    21    2
    28    14    15   ar
    29     7     8   ar
    30     8     9   ar
    31    27    28   ar
    32    28    29   ar
    33    33    34    1
    34    34    35    1
    35    35    30    1
    36    29    24   ar
    37     9     1   ar
    38     8     4   ar
    39    15    10   ar
    40    22    23    1
    41    16    17    1
@<TRIPOS>MOLECULE
*****
 37 41 0 0 0
SMALL
GASTEIGER

@<TRIPOS>ATOM
      1 C         139.6210  138.7533  162.6906 C.ar    1  UNL1        0.2207
      2 N         138.8635  137.8539  163.6219 N.ar    1  UNL1       -0.2115
      3 C         138.7665  138.1941  165.0795 C.ar    1  UNL1        0.1098
      4 C         139.4271  139.4337  165.6059 C.ar    1  UNL1        0.0664
      5 S         139.5024  140.0233  166.9832 S.2     1  UNL1       -0.0833
      6 C         140.3065  141.2870  166.9031 C.ar    1  UNL1        0.0370
      7 C         140.7281  141.4785  165.4764 C.ar    1  UNL1        0.0248
      8 C         140.1846  140.3331  164.6747 C.ar    1  UNL1        0.0921
      9 N         140.2815  139.9929  163.2170 N.ar    1  UNL1       -0.2130
     10 C         141.5491  142.6157  164.9446 C.ar    1  UNL1        0.0032
     11 C         143.0070  142.7113  165.2843 C.ar    1  UNL1        0.0001
     12 C         143.8280  143.8485  164.7525 C.ar    1  UNL1        0.0013
     13 C         143.1911  144.8901  163.8812 C.ar    1  UNL1        0.0158
     14 C         141.7332  144.7945  163.5415 C.ar    1  UNL1        0.0644
     15 C         140.9122  143.6573  164.0732 C.ar    1  UNL1        0.0159
     16 N         141.0962  145.8362  162.6700 N.pl3   1  UNL1       -0.2187
     17 H         141.0215  146.7650  162.9876 H       1  UNL1        0.1734
     18 S         140.5732  145.4625  161.3148 S.O2    1  UNL1        0.0558
     19 C         140.0500  145.0889  159.9594 C.3     1  UNL1        0.1996
     20 O         139.2083  145.9442  161.7089 O.2     1  UNL1       -0.1544
     21 O         141.9380  144.9810  160.9207 O.2     1  UNL1       -0.1544
     22 N         139.7180  138.4131  161.2329 N.pl3   1  UNL1       -0.2825
     23 H         139.0560  137.8107  160.8229 H       1  UNL1        0.1551
     24 C         143.0349  140.1460  158.7338 C.ar    1  UNL1        0.0480
     25 C         141.6661  140.7582  158.6922 C.ar    1  UNL1        0.0158
     26 C         140.5605  140.1805  159.5252 C.ar    1  UNL1        0.0159
     27 C         140.8236  138.9907  160.3999 C.ar    1  UNL1        0.0505
     28 C         142.1924  138.3785  160.4415 C.ar    1  UNL1        0.0159
     29 C         143.2980  138.9562  159.6085 C.ar    1  UNL1        0.0158
     30 N         146.3518  141.8789  156.2348 N.3     1  UNL1       -0.2698
     31 C         145.6685  140.6156  155.8023 C.3     1  UNL1        0.0938
     32 C         144.5628  140.0379  156.6353 C.3     1  UNL1        0.1081
     33 N         144.1405  140.7236  157.9008 N.pl3   1  UNL1       -0.3046
     34 C         144.8239  141.9869  158.3333 C.3     1  UNL1        0.1081
     35 C         145.9295  142.5645  157.5003 C.3     1  UNL1        0.0938
     36 C         148.8210  141.8319  155.4280 C.3     1  UNL1        0.0188
     37 C         147.4574  142.4565  155.4018 C.3     1  UNL1        0.0722
@<TRIPOS>BOND
     1    36    37    1
     2    37    30    1
     3    30    31    1
     4    31    32    1
     5    32    33    1
     6    33    24    1
     7    24    25   ar
     8    25    26   ar
     9    26    27   ar
    10    27    22    1
    11    22     1    1
    12     1     2   ar
    13     2     3   ar
    14     3     4   ar
    15     4     5   ar
    16     5     6   ar
    17     6     7   ar
    18     7    10    1
    19    10    11   ar
    20    11    12   ar
    21    12    13   ar
    22    13    14   ar
    23    14    16    1
    24    16    18    1
    25    18    19    1
    26    18    20    2
    27    18    21    2
    28    14    15   ar
    29     7     8   ar
    30     8     9   ar
    31    27    28   ar
    32    28    29   ar
    33    33    34    1
    34    34    35    1
    35    35    30    1
    36    29    24   ar
    37     9     1   ar
    38     8     4   ar
    39    15    10   ar
    40    22    23    1
    41    16    17    1
@<TRIPOS>MOLECULE
*****
 37 41 0 0 0
SMALL
GASTEIGER

@<TRIPOS>ATOM
      1 C         140.3859  138.5787  162.2302 C.ar    1  UNL1        0.2207
      2 N         140.5519  137.2712  162.9464 N.ar    1  UNL1       -0.2115
      3 C         141.3286  137.2115  164.2282 C.ar    1  UNL1        0.1098
      4 C         141.9394  138.4593  164.7939 C.ar    1  UNL1        0.0664
      5 S         142.7525  138.7077  166.0297 S.2     1  UNL1       -0.0833
      6 C         143.0891  140.1686  166.0772 C.ar    1  UNL1        0.0370
      7 C         142.4840  140.8232  164.8708 C.ar    1  UNL1        0.0248
      8 C         141.7734  139.7668  164.0777 C.ar    1  UNL1        0.0921
      9 N         140.9967  139.8265  162.7959 N.ar    1  UNL1       -0.2130
     10 C         142.5737  142.2786  164.5193 C.ar    1  UNL1        0.0032
     11 C         143.9153  142.9328  164.3700 C.ar    1  UNL1        0.0001
     12 C         144.0050  144.3883  164.0184 C.ar    1  UNL1        0.0013
     13 C         142.7532  145.1896  163.8162 C.ar    1  UNL1        0.0158
     14 C         141.4117  144.5354  163.9655 C.ar    1  UNL1        0.0644
     15 C         141.3220  143.0799  164.3170 C.ar    1  UNL1        0.0159
     16 N         140.1598  145.3367  163.7632 N.pl3   1  UNL1       -0.2187
     17 H         140.1784  146.3149  163.8725 H       1  UNL1        0.1734
     18 S         138.8796  144.6475  163.3944 S.O2    1  UNL1        0.0558
     19 C         137.5993  143.9583  163.0255 C.3     1  UNL1        0.1996
     20 O         139.2776  144.6820  161.9485 O.2     1  UNL1       -0.1544
     21 O         138.4816  144.6130  164.8403 O.2     1  UNL1       -0.1544
     22 N         139.6092  138.6384  160.9483 N.pl3   1  UNL1       -0.2825
     23 H         139.1136  137.8472  160.6358 H       1  UNL1        0.1551
     24 C         139.5444  142.4337  158.5315 C.ar    1  UNL1        0.0480
     25 C         140.6050  141.4030  158.2809 C.ar    1  UNL1        0.0158
     26 C         140.6266  140.1379  159.0865 C.ar    1  UNL1        0.0159
     27 C         139.5876  139.9035  160.1427 C.ar    1  UNL1        0.0505
     28 C         138.5270  140.9342  160.3933 C.ar    1  UNL1        0.0159
     29 C         138.5054  142.1993  159.5877 C.ar    1  UNL1        0.0158
     30 N         139.4796  146.2291  156.1147 N.3     1  UNL1       -0.2698
     31 C         138.7897  145.0005  155.6003 C.3     1  UNL1        0.0938
     32 C         138.8113  143.7354  156.4059 C.3     1  UNL1        0.1081
     33 N         139.5228  143.6988  157.7259 N.pl3   1  UNL1       -0.3046
     34 C         140.2127  144.9275  158.2403 C.3     1  UNL1        0.1081
     35 C         140.1911  146.1925  157.4347 C.3     1  UNL1        0.0938
     36 C         140.2778  147.6004  154.0574 C.3     1  UNL1        0.0188
     37 C         139.4579  147.4942  155.3091 C.3     1  UNL1        0.0722
@<TRIPOS>BOND
     1    36    37    1
     2    37    30    1
     3    30    31    1
     4    31    32    1
     5    32    33    1
     6    33    24    1
     7    24    25   ar
     8    25    26   ar
     9    26    27   ar
    10    27    22    1
    11    22     1    1
    12     1     2   ar
    13     2     3   ar
    14     3     4   ar
    15     4     5   ar
    16     5     6   ar
    17     6     7   ar
    18     7    10    1
    19    10    11   ar
    20    11    12   ar
    21    12    13   ar
    22    13    14   ar
    23    14    16    1
    24    16    18    1
    25    18    19    1
    26    18    20    2
    27    18    21    2
    28    14    15   ar
    29     7     8   ar
    30     8     9   ar
    31    27    28   ar
    32    28    29   ar
    33    33    34    1
    34    34    35    1
    35    35    30    1
    36    29    24   ar
    37     9     1   ar
    38     8     4   ar
    39    15    10   ar
    40    22    23    1
    41    16    17    1
@<TRIPOS>MOLECULE
*****
 37 41 0 0 0
SMALL
GASTEIGER

@<TRIPOS>ATOM
      1 C         142.7529  138.3654  159.8656 C.ar    1  UNL1        0.2207
      2 N         143.0468  137.9029  158.4693 N.ar    1  UNL1       -0.2115
      3 C         142.6595  138.7575  157.2990 C.ar    1  UNL1        0.1098
      4 C         141.9783  140.0746  157.5251 C.ar    1  UNL1        0.0664
      5 S         141.4824  141.1242  156.5750 S.2     1  UNL1       -0.0833
      6 C         140.8821  142.2354  157.3842 C.ar    1  UNL1        0.0370
      7 C         141.0069  141.8726  158.8343 C.ar    1  UNL1        0.0248
      8 C         141.6844  140.5372  158.9213 C.ar    1  UNL1        0.0921
      9 N         142.0717  139.6826  160.0916 N.ar    1  UNL1       -0.2130
     10 C         140.5368  142.6999  159.9938 C.ar    1  UNL1        0.0032
     11 C         139.0933  142.6694  160.4006 C.ar    1  UNL1        0.0001
     12 C         138.6232  143.4967  161.5601 C.ar    1  UNL1        0.0013
     13 C         139.5964  144.3547  162.3128 C.ar    1  UNL1        0.0158
     14 C         141.0399  144.3852  161.9060 C.ar    1  UNL1        0.0644
     15 C         141.5100  143.5579  160.7465 C.ar    1  UNL1        0.0159
     16 N         142.0133  145.2433  162.6588 N.pl3   1  UNL1       -0.2187
     17 H         141.9724  146.2234  162.5754 H       1  UNL1        0.1734
     18 S         143.0488  144.6079  163.5385 S.O2    1  UNL1        0.0558
     19 C         144.0845  143.9725  164.4182 C.3     1  UNL1        0.1996
     20 O         144.1193  145.0064  162.5661 O.2     1  UNL1       -0.1544
     21 O         141.9784  144.2095  164.5108 O.2     1  UNL1       -0.1544
     22 N         143.1402  137.5108  161.0359 N.pl3   1  UNL1       -0.2825
     23 H         143.6231  136.6654  160.8897 H       1  UNL1        0.1551
     24 C         142.0947  138.8109  165.2152 C.ar    1  UNL1        0.0480
     25 C         143.3920  139.2423  164.5980 C.ar    1  UNL1        0.0158
     26 C         143.7405  138.8089  163.2050 C.ar    1  UNL1        0.0159
     27 C         142.7917  137.9441  162.4290 C.ar    1  UNL1        0.0505
     28 C         141.4944  137.5128  163.0462 C.ar    1  UNL1        0.0159
     29 C         141.1459  137.9463  164.4394 C.ar    1  UNL1        0.0158
     30 N         141.0491  140.1111  169.3945 N.3     1  UNL1       -0.2698
     31 C         142.4295  139.6108  169.0880 C.3     1  UNL1        0.0938
     32 C         142.7781  139.1774  167.6948 C.3     1  UNL1        0.1081
     33 N         141.7462  139.2443  166.6083 N.pl3   1  UNL1       -0.3046
     34 C         140.3657  139.7447  166.9148 C.3     1  UNL1        0.1081
     35 C         140.0172  140.1781  168.3079 C.3     1  UNL1        0.0938
     36 C         140.7899  141.9930  171.1668 C.3     1  UNL1        0.0188
     37 C         140.7006  140.5445  170.7875 C.3     1  UNL1        0.0722
@<TRIPOS>BOND
     1    36    37    1
     2    37    30    1
     3    30    31    1
     4    31    32    1
     5    32    33    1
     6    33    24    1
     7    24    25   ar
     8    25    26   ar
     9    26    27   ar
    10    27    22    1
    11    22     1    1
    12     1     2   ar
    13     2     3   ar
    14     3     4   ar
    15     4     5   ar
    16     5     6   ar
    17     6     7   ar
    18     7    10    1
    19    10    11   ar
    20    11    12   ar
    21    12    13   ar
    22    13    14   ar
    23    14    16    1
    24    16    18    1
    25    18    19    1
    26    18    20    2
    27    18    21    2
    28    14    15   ar
    29     7     8   ar
    30     8     9   ar
    31    27    28   ar
    32    28    29   ar
    33    33    34    1
    34    34    35    1
    35    35    30    1
    36    29    24   ar
    37     9     1   ar
    38     8     4   ar
    39    15    10   ar
    40    22    23    1
    41    16    17    1
