@<TRIPOS>MOLECULE
*****
 28 30 0 0 0
SMALL
GASTEIGER

@<TRIPOS>ATOM
      1 N         141.6719  141.3656  167.7886 N.3     1  UNL1       -0.2673
      2 C         141.0311  141.2860  169.1425 C.3     1  UNL1        0.0885
      3 C         139.7977  140.4408  169.0226 C.3     1  UNL1        0.0753
      4 N         138.8519  140.0985  170.1354 N.3     1  UNL1       -0.3207
      5 C         139.6763  139.9979  167.5946 C.3     1  UNL1        0.0891
      6 C         140.8346  140.5695  166.8320 C.3     1  UNL1        0.0811
      7 H         139.1744  140.5313  171.0009 H       1  UNL1        0.1189
      8 H         138.8182  139.0859  170.2536 H       1  UNL1        0.1189
      9 C         138.5876  139.1351  167.0287 C.2     1  UNL1        0.1535
     10 O         137.4824  138.6438  167.9159 O.2     1  UNL1       -0.2960
     11 C         138.6043  138.7634  165.5755 C.3     1  UNL1        0.0717
     12 C         138.8833  137.3993  165.0175 C.3     1  UNL1        0.0084
     13 C         138.7963  137.4834  163.5224 C.3     1  UNL1        0.0015
     14 C         138.4634  138.8995  163.1564 C.3     1  UNL1        0.0155
     15 C         138.3448  139.6905  164.4253 C.3     1  UNL1        0.0983
     16 C         138.0230  141.1522  164.5262 C.1     1  UNL1        0.0725
     17 N         137.7013  142.6138  164.6271 N.1     1  UNL1       -0.1959
     18 C         142.9293  142.1105  167.4506 C.3     1  UNL1        0.0992
     19 C         143.8345  145.0236  163.2441 C.3     1  UNL1        0.0317
     20 C         143.8234  143.6838  163.9186 C.ar    1  UNL1       -0.0128
     21 C         143.3819  143.5670  165.3473 C.ar    1  UNL1       -0.0065
     22 C         143.3708  142.2272  166.0218 C.ar    1  UNL1       -0.0067
     23 C         143.8011  141.0043  165.2674 C.ar    1  UNL1       -0.0065
     24 C         144.2426  141.1211  163.8387 C.ar    1  UNL1       -0.0128
     25 C         144.6730  139.8980  163.0842 C.3     1  UNL1        0.0317
     26 C         144.2537  142.4609  163.1642 C.ar    1  UNL1        0.0605
     27 C         144.6952  142.5776  161.7354 C.1     1  UNL1        0.0998
     28 N         145.1368  142.6943  160.3066 N.1     1  UNL1       -0.1909
@<TRIPOS>BOND
     1    19    20    1
     2    20    21   ar
     3    21    22   ar
     4    22    18    1
     5    18     1    1
     6     1     2    1
     7     2     3    1
     8     3     4    1
     9     3     5    1
    10     5     9    1
    11     9    10    2
    12     9    11    1
    13    11    12    1
    14    12    13    1
    15    13    14    1
    16    14    15    1
    17    15    16    1
    18    16    17    3
    19     5     6    1
    20    22    23   ar
    21    23    24   ar
    22    24    25    1
    23    24    26   ar
    24    26    27    1
    25    27    28    3
    26    26    20   ar
    27     6     1    1
    28    15    11    1
    29     4     7    1
    30     4     8    1
@<TRIPOS>MOLECULE
*****
 28 30 0 0 0
SMALL
GASTEIGER

@<TRIPOS>ATOM
      1 N         141.4400  139.2928  165.1827 N.3     1  UNL1       -0.2673
      2 C         142.6582  138.4179  165.1611 C.3     1  UNL1        0.0885
      3 C         143.2301  138.3851  166.5474 C.3     1  UNL1        0.0753
      4 N         144.4521  137.6301  166.9794 N.3     1  UNL1       -0.3207
      5 C         142.3653  139.2398  167.4258 C.3     1  UNL1        0.0891
      6 C         141.2590  139.8008  166.5824 C.3     1  UNL1        0.0811
      7 H         144.8451  137.1333  166.1800 H       1  UNL1        0.1189
      8 H         144.1987  136.9598  167.7052 H       1  UNL1        0.1189
      9 C         142.5708  139.4897  168.8905 C.2     1  UNL1        0.1535
     10 O         143.0007  138.3686  169.7895 O.2     1  UNL1       -0.2960
     11 C         142.3463  140.8607  169.4562 C.3     1  UNL1        0.0717
     12 C         143.3719  141.9504  169.5603 C.3     1  UNL1        0.0084
     13 C         142.7163  143.1458  170.1855 C.3     1  UNL1        0.0015
     14 C         141.2855  142.7950  170.4680 C.3     1  UNL1        0.0155
     15 C         141.0569  141.3828  170.0172 C.3     1  UNL1        0.0983
     16 C         139.7654  140.6255  170.1110 C.1     1  UNL1        0.0725
     17 N         138.4740  139.8683  170.2049 N.1     1  UNL1       -0.1959
     18 C         140.5577  139.6050  164.0104 C.3     1  UNL1        0.0992
     19 C         142.2916  143.6973  161.3184 C.3     1  UNL1        0.0317
     20 C         141.2589  143.0702  162.2074 C.ar    1  UNL1       -0.0128
     21 C         141.4247  141.6512  162.6644 C.ar    1  UNL1       -0.0065
     22 C         140.3920  141.0241  163.5534 C.ar    1  UNL1       -0.0067
     23 C         139.1935  141.8160  163.9853 C.ar    1  UNL1       -0.0065
     24 C         139.0278  143.2350  163.5283 C.ar    1  UNL1       -0.0128
     25 C         137.8293  144.0270  163.9602 C.3     1  UNL1        0.0317
     26 C         140.0605  143.8621  162.6393 C.ar    1  UNL1        0.0605
     27 C         139.8947  145.2812  162.1823 C.1     1  UNL1        0.0998
     28 N         139.7289  146.7001  161.7253 N.1     1  UNL1       -0.1909
@<TRIPOS>BOND
     1    19    20    1
     2    20    21   ar
     3    21    22   ar
     4    22    18    1
     5    18     1    1
     6     1     2    1
     7     2     3    1
     8     3     4    1
     9     3     5    1
    10     5     9    1
    11     9    10    2
    12     9    11    1
    13    11    12    1
    14    12    13    1
    15    13    14    1
    16    14    15    1
    17    15    16    1
    18    16    17    3
    19     5     6    1
    20    22    23   ar
    21    23    24   ar
    22    24    25    1
    23    24    26   ar
    24    26    27    1
    25    27    28    3
    26    26    20   ar
    27     6     1    1
    28    15    11    1
    29     4     7    1
    30     4     8    1
@<TRIPOS>MOLECULE
*****
 28 30 0 0 0
SMALL
GASTEIGER

@<TRIPOS>ATOM
      1 N         138.8562  140.8545  163.6236 N.3     1  UNL1       -0.2673
      2 C         137.9303  141.0711  162.4636 C.3     1  UNL1        0.0885
      3 C         138.3159  142.3582  161.7967 C.3     1  UNL1        0.0753
      4 N         137.6535  142.9606  160.5933 N.3     1  UNL1       -0.3207
      5 C         139.4801  142.9371  162.5446 C.3     1  UNL1        0.0891
      6 C         139.8141  142.0077  163.6737 C.3     1  UNL1        0.0811
      7 H         136.8892  142.3578  160.2884 H       1  UNL1        0.1189
      8 H         138.3353  143.0524  159.8402 H       1  UNL1        0.1189
      9 C         140.1865  144.2200  162.2204 C.2     1  UNL1        0.1535
     10 O         139.4820  145.2863  161.4351 O.2     1  UNL1       -0.2960
     11 C         141.5973  144.4367  162.6815 C.3     1  UNL1        0.0717
     12 C         142.0160  145.1445  163.9360 C.3     1  UNL1        0.0084
     13 C         143.5146  145.1289  163.9989 C.3     1  UNL1        0.0015
     14 C         144.0221  144.4115  162.7832 C.3     1  UNL1        0.0155
     15 C         142.8371  143.9837  161.9691 C.3     1  UNL1        0.0983
     16 C         142.8839  143.2344  160.6705 C.1     1  UNL1        0.0725
     17 N         142.9306  142.4850  159.3719 N.1     1  UNL1       -0.1959
     18 C         138.8291  139.6892  164.5678 C.3     1  UNL1        0.0992
     19 C         139.5745  140.5876  169.6312 C.3     1  UNL1        0.0317
     20 C         140.0974  140.1271  168.3028 C.ar    1  UNL1       -0.0128
     21 C         139.2018  140.1384  167.0995 C.ar    1  UNL1       -0.0065
     22 C         139.7247  139.6779  165.7711 C.ar    1  UNL1       -0.0067
     23 C         141.1430  139.2062  165.6460 C.ar    1  UNL1       -0.0065
     24 C         142.0385  139.1949  166.8492 C.ar    1  UNL1       -0.0128
     25 C         143.4569  138.7231  166.7241 C.3     1  UNL1        0.0317
     26 C         141.5157  139.6553  168.1776 C.ar    1  UNL1        0.0605
     27 C         142.4113  139.6440  169.3809 C.1     1  UNL1        0.0998
     28 N         143.3069  139.6327  170.5841 N.1     1  UNL1       -0.1909
@<TRIPOS>BOND
     1    19    20    1
     2    20    21   ar
     3    21    22   ar
     4    22    18    1
     5    18     1    1
     6     1     2    1
     7     2     3    1
     8     3     4    1
     9     3     5    1
    10     5     9    1
    11     9    10    2
    12     9    11    1
    13    11    12    1
    14    12    13    1
    15    13    14    1
    16    14    15    1
    17    15    16    1
    18    16    17    3
    19     5     6    1
    20    22    23   ar
    21    23    24   ar
    22    24    25    1
    23    24    26   ar
    24    26    27    1
    25    27    28    3
    26    26    20   ar
    27     6     1    1
    28    15    11    1
    29     4     7    1
    30     4     8    1
@<TRIPOS>MOLECULE
*****
 28 30 0 0 0
SMALL
GASTEIGER

@<TRIPOS>ATOM
      1 N         139.2159  139.6202  164.3208 N.3     1  UNL1       -0.2673
      2 C         138.2502  139.1503  163.2736 C.3     1  UNL1        0.0885
      3 C         138.0343  140.2743  162.3041 C.3     1  UNL1        0.0753
      4 N         137.1427  140.2397  161.0984 N.3     1  UNL1       -0.3207
      5 C         138.8666  141.4390  162.7521 C.3     1  UNL1        0.0891
      6 C         139.5969  141.0348  163.9984 C.3     1  UNL1        0.0811
      7 H         136.6963  139.3250  161.0318 H       1  UNL1        0.1189
      8 H         137.6982  140.4089  160.2598 H       1  UNL1        0.1189
      9 C         138.9535  142.7736  162.0729 C.2     1  UNL1        0.1535
     10 O         137.8524  143.2231  161.1589 O.2     1  UNL1       -0.2960
     11 C         140.1415  143.6588  162.3078 C.3     1  UNL1        0.0717
     12 C         141.3565  143.7544  161.4333 C.3     1  UNL1        0.0084
     13 C         142.2889  144.7585  162.0435 C.3     1  UNL1        0.0015
     14 C         141.6503  145.2834  163.2952 C.3     1  UNL1        0.0155
     15 C         140.3231  144.6038  163.4585 C.3     1  UNL1        0.0983
     16 C         139.3486  144.8296  164.5763 C.1     1  UNL1        0.0725
     17 N         138.3742  145.0554  165.6941 N.1     1  UNL1       -0.1959
     18 C         139.7133  138.8168  165.4857 C.3     1  UNL1        0.0992
     19 C         143.0678  141.4167  168.4837 C.3     1  UNL1        0.0317
     20 C         141.7166  140.7977  168.2808 C.ar    1  UNL1       -0.0128
     21 C         141.3905  140.1167  166.9847 C.ar    1  UNL1       -0.0065
     22 C         140.0393  139.4978  166.7819 C.ar    1  UNL1       -0.0067
     23 C         139.0142  139.5597  167.8751 C.ar    1  UNL1       -0.0065
     24 C         139.3403  140.2407  169.1712 C.ar    1  UNL1       -0.0128
     25 C         138.3151  140.3027  170.2646 C.3     1  UNL1        0.0317
     26 C         140.6915  140.8597  169.3741 C.ar    1  UNL1        0.0605
     27 C         141.0175  141.5406  170.6703 C.1     1  UNL1        0.0998
     28 N         141.3436  142.2216  171.9664 N.1     1  UNL1       -0.1909
@<TRIPOS>BOND
     1    19    20    1
     2    20    21   ar
     3    21    22   ar
     4    22    18    1
     5    18     1    1
     6     1     2    1
     7     2     3    1
     8     3     4    1
     9     3     5    1
    10     5     9    1
    11     9    10    2
    12     9    11    1
    13    11    12    1
    14    12    13    1
    15    13    14    1
    16    14    15    1
    17    15    16    1
    18    16    17    3
    19     5     6    1
    20    22    23   ar
    21    23    24   ar
    22    24    25    1
    23    24    26   ar
    24    26    27    1
    25    27    28    3
    26    26    20   ar
    27     6     1    1
    28    15    11    1
    29     4     7    1
    30     4     8    1
@<TRIPOS>MOLECULE
*****
 28 30 0 0 0
SMALL
GASTEIGER

@<TRIPOS>ATOM
      1 N         139.6683  139.3880  165.2981 N.3     1  UNL1       -0.2673
      2 C         138.4517  138.5825  165.6462 C.3     1  UNL1        0.0885
      3 C         138.1512  138.8012  167.0994 C.3     1  UNL1        0.0753
      4 N         137.0187  138.1870  167.8676 N.3     1  UNL1       -0.3207
      5 C         139.1820  139.7418  167.6495 C.3     1  UNL1        0.0891
      6 C         140.1196  140.1045  166.5362 C.3     1  UNL1        0.0811
      7 H         136.4726  137.5884  167.2480 H       1  UNL1        0.1189
      8 H         136.4215  138.9248  168.2409 H       1  UNL1        0.1189
      9 C         139.2614  140.2335  169.0644 C.2     1  UNL1        0.1535
     10 O         138.2907  139.7272  170.0898 O.2     1  UNL1       -0.2960
     11 C         140.3113  141.2314  169.4539 C.3     1  UNL1        0.0717
     12 C         140.1395  142.7209  169.4962 C.3     1  UNL1        0.0084
     13 C         141.4394  143.3252  169.9379 C.3     1  UNL1        0.0015
     14 C         142.4147  142.2090  170.1686 C.3     1  UNL1        0.0155
     15 C         141.7174  140.9151  169.8694 C.3     1  UNL1        0.0983
     16 C         142.3206  139.5452  169.9685 C.1     1  UNL1        0.0725
     17 N         142.9237  138.1754  170.0675 N.1     1  UNL1       -0.1959
     18 C         140.3192  139.4638  163.9488 C.3     1  UNL1        0.0992
     19 C         142.2693  142.6229  160.3132 C.3     1  UNL1        0.0317
     20 C         141.2104  142.3073  161.3277 C.ar    1  UNL1       -0.0128
     21 C         141.2942  141.0434  162.1310 C.ar    1  UNL1       -0.0065
     22 C         140.2353  140.7278  163.1455 C.ar    1  UNL1       -0.0067
     23 C         139.0927  141.6763  163.3567 C.ar    1  UNL1       -0.0065
     24 C         139.0089  142.9403  162.5535 C.ar    1  UNL1       -0.0128
     25 C         137.8661  143.8888  162.7647 C.3     1  UNL1        0.0317
     26 C         140.0677  143.2558  161.5390 C.ar    1  UNL1        0.0605
     27 C         139.9839  144.5199  160.7357 C.1     1  UNL1        0.0998
     28 N         139.9001  145.7839  159.9325 N.1     1  UNL1       -0.1909
@<TRIPOS>BOND
     1    19    20    1
     2    20    21   ar
     3    21    22   ar
     4    22    18    1
     5    18     1    1
     6     1     2    1
     7     2     3    1
     8     3     4    1
     9     3     5    1
    10     5     9    1
    11     9    10    2
    12     9    11    1
    13    11    12    1
    14    12    13    1
    15    13    14    1
    16    14    15    1
    17    15    16    1
    18    16    17    3
    19     5     6    1
    20    22    23   ar
    21    23    24   ar
    22    24    25    1
    23    24    26   ar
    24    26    27    1
    25    27    28    3
    26    26    20   ar
    27     6     1    1
    28    15    11    1
    29     4     7    1
    30     4     8    1
@<TRIPOS>MOLECULE
*****
 28 30 0 0 0
SMALL
GASTEIGER

@<TRIPOS>ATOM
      1 N         138.5807  139.1158  163.0242 N.3     1  UNL1       -0.2673
      2 C         138.0010  138.6995  161.7049 C.3     1  UNL1        0.0885
      3 C         137.9308  139.9129  160.8258 C.3     1  UNL1        0.0753
      4 N         137.4148  139.9531  159.4180 N.3     1  UNL1       -0.3207
      5 C         138.4671  141.0792  161.6019 C.3     1  UNL1        0.0891
      6 C         138.8688  140.5865  162.9606 C.3     1  UNL1        0.0811
      7 H         137.1131  139.0193  159.1396 H       1  UNL1        0.1189
      8 H         138.1557  140.2713  158.7933 H       1  UNL1        0.1189
      9 C         138.5817  142.4903  161.1064 C.2     1  UNL1        0.1535
     10 O         138.2136  142.8200  159.6901 O.2     1  UNL1       -0.2960
     11 C         139.0643  143.5717  162.0271 C.3     1  UNL1        0.0717
     12 C         138.3654  144.0539  163.2635 C.3     1  UNL1        0.0084
     13 C         139.1998  145.1409  163.8736 C.3     1  UNL1        0.0015
     14 C         140.4144  145.3305  163.0141 C.3     1  UNL1        0.0155
     15 C         140.3307  144.3607  161.8729 C.3     1  UNL1        0.0983
     16 C         141.3368  144.2068  160.7710 C.1     1  UNL1        0.0725
     17 N         142.3429  144.0530  159.6691 N.1     1  UNL1       -0.1959
     18 C         138.8288  138.2188  164.2006 C.3     1  UNL1        0.0992
     19 C         143.5741  138.7596  166.2475 C.3     1  UNL1        0.0317
     20 C         142.0890  138.9479  166.3429 C.ar    1  UNL1       -0.0128
     21 C         141.2014  138.4892  165.2241 C.ar    1  UNL1       -0.0065
     22 C         139.7164  138.6775  165.3195 C.ar    1  UNL1       -0.0067
     23 C         139.1189  139.3246  166.5337 C.ar    1  UNL1       -0.0065
     24 C         140.0064  139.7833  167.6525 C.ar    1  UNL1       -0.0128
     25 C         139.4090  140.4303  168.8668 C.3     1  UNL1        0.0317
     26 C         141.4915  139.5949  167.5571 C.ar    1  UNL1        0.0605
     27 C         142.3791  140.0537  168.6760 C.1     1  UNL1        0.0998
     28 N         143.2666  140.5123  169.7948 N.1     1  UNL1       -0.1909
@<TRIPOS>BOND
     1    19    20    1
     2    20    21   ar
     3    21    22   ar
     4    22    18    1
     5    18     1    1
     6     1     2    1
     7     2     3    1
     8     3     4    1
     9     3     5    1
    10     5     9    1
    11     9    10    2
    12     9    11    1
    13    11    12    1
    14    12    13    1
    15    13    14    1
    16    14    15    1
    17    15    16    1
    18    16    17    3
    19     5     6    1
    20    22    23   ar
    21    23    24   ar
    22    24    25    1
    23    24    26   ar
    24    26    27    1
    25    27    28    3
    26    26    20   ar
    27     6     1    1
    28    15    11    1
    29     4     7    1
    30     4     8    1
@<TRIPOS>MOLECULE
*****
 28 30 0 0 0
SMALL
GASTEIGER

@<TRIPOS>ATOM
      1 N         138.9460  138.5857  164.4758 N.3     1  UNL1       -0.2673
      2 C         138.5189  138.1893  165.8580 C.3     1  UNL1        0.0885
      3 C         138.8191  139.3324  166.7817 C.3     1  UNL1        0.0753
      4 N         138.5533  139.3666  168.2575 N.3     1  UNL1       -0.3207
      5 C         139.4317  140.4353  165.9704 C.3     1  UNL1        0.0891
      6 C         139.5101  139.9738  164.5453 C.3     1  UNL1        0.0811
      7 H         138.1314  138.4844  168.5475 H       1  UNL1        0.1189
      8 H         137.9164  140.1343  168.4706 H       1  UNL1        0.1189
      9 C         139.8861  141.7661  166.4924 C.2     1  UNL1        0.1535
     10 O         140.2415  141.9217  167.9414 O.2     1  UNL1       -0.2960
     11 C         139.9851  142.9414  165.5655 C.3     1  UNL1        0.0717
     12 C         138.8452  143.8034  165.1100 C.3     1  UNL1        0.0084
     13 C         139.3969  144.8557  164.1944 C.3     1  UNL1        0.0015
     14 C         140.8778  144.6439  164.0841 C.3     1  UNL1        0.0155
     15 C         141.2412  143.4608  164.9315 C.3     1  UNL1        0.0983
     16 C         142.6191  142.8963  165.1129 C.1     1  UNL1        0.0725
     17 N         143.9970  142.3318  165.2944 N.1     1  UNL1       -0.1959
     18 C         138.8294  137.7421  163.2410 C.3     1  UNL1        0.0992
     19 C         143.6650  137.8100  161.3402 C.3     1  UNL1        0.0317
     20 C         142.1891  137.9918  161.1433 C.ar    1  UNL1       -0.0128
     21 C         141.2472  137.7761  162.2905 C.ar    1  UNL1       -0.0065
     22 C         139.7713  137.9578  162.0936 C.ar    1  UNL1       -0.0067
     23 C         139.2374  138.3553  160.7495 C.ar    1  UNL1       -0.0065
     24 C         140.1792  138.5710  159.6022 C.ar    1  UNL1       -0.0128
     25 C         139.6453  138.9685  158.2579 C.3     1  UNL1        0.0317
     26 C         141.6551  138.3892  159.7991 C.ar    1  UNL1        0.0605
     27 C         142.5970  138.6050  158.6517 C.1     1  UNL1        0.0998
     28 N         143.5389  138.8206  157.5044 N.1     1  UNL1       -0.1909
@<TRIPOS>BOND
     1    19    20    1
     2    20    21   ar
     3    21    22   ar
     4    22    18    1
     5    18     1    1
     6     1     2    1
     7     2     3    1
     8     3     4    1
     9     3     5    1
    10     5     9    1
    11     9    10    2
    12     9    11    1
    13    11    12    1
    14    12    13    1
    15    13    14    1
    16    14    15    1
    17    15    16    1
    18    16    17    3
    19     5     6    1
    20    22    23   ar
    21    23    24   ar
    22    24    25    1
    23    24    26   ar
    24    26    27    1
    25    27    28    3
    26    26    20   ar
    27     6     1    1
    28    15    11    1
    29     4     7    1
    30     4     8    1
@<TRIPOS>MOLECULE
*****
 28 30 0 0 0
SMALL
GASTEIGER

@<TRIPOS>ATOM
      1 N         142.4941  138.9903  162.6926 N.3     1  UNL1       -0.2673
      2 C         143.1299  138.5891  161.3946 C.3     1  UNL1        0.0885
      3 C         143.4064  139.8365  160.6087 C.3     1  UNL1        0.0753
      4 N         144.0371  139.9005  159.2493 N.3     1  UNL1       -0.3207
      5 C         142.9414  141.0087  161.4211 C.3     1  UNL1        0.0891
      6 C         142.3776  140.4856  162.7089 C.3     1  UNL1        0.0811
      7 H         144.2547  138.9563  158.9307 H       1  UNL1        0.1189
      8 H         144.8955  140.4492  159.2982 H       1  UNL1        0.1189
      9 C         143.0254  142.4506  161.0166 C.2     1  UNL1        0.1535
     10 O         143.1611  142.8166  159.5683 O.2     1  UNL1       -0.2960
     11 C         142.9738  143.5267  162.0604 C.3     1  UNL1        0.0717
     12 C         144.1340  144.0276  162.8684 C.3     1  UNL1        0.0084
     13 C         143.6301  145.1012  163.7869 C.3     1  UNL1        0.0015
     14 C         142.1584  145.2638  163.5464 C.3     1  UNL1        0.0155
     15 C         141.7529  144.2906  162.4794 C.3     1  UNL1        0.0983
     16 C         140.3691  144.1128  161.9282 C.1     1  UNL1        0.0725
     17 N         138.9855  143.9350  161.3770 N.1     1  UNL1       -0.1959
     18 C         142.0524  138.0595  163.7828 C.3     1  UNL1        0.0992
     19 C         142.5694  140.4050  168.3905 C.3     1  UNL1        0.0317
     20 C         141.6979  139.7827  167.3401 C.ar    1  UNL1       -0.0128
     21 C         142.3109  139.2323  166.0867 C.ar    1  UNL1       -0.0065
     22 C         141.4394  138.6100  165.0363 C.ar    1  UNL1       -0.0067
     23 C         139.9549  138.5382  165.2394 C.ar    1  UNL1       -0.0065
     24 C         139.3420  139.0887  166.4929 C.ar    1  UNL1       -0.0128
     25 C         137.8575  139.0169  166.6960 C.3     1  UNL1        0.0317
     26 C         140.2135  139.7109  167.5432 C.ar    1  UNL1        0.0605
     27 C         139.6005  140.2614  168.7968 C.1     1  UNL1        0.0998
     28 N         138.9875  140.8119  170.0502 N.1     1  UNL1       -0.1909
@<TRIPOS>BOND
     1    19    20    1
     2    20    21   ar
     3    21    22   ar
     4    22    18    1
     5    18     1    1
     6     1     2    1
     7     2     3    1
     8     3     4    1
     9     3     5    1
    10     5     9    1
    11     9    10    2
    12     9    11    1
    13    11    12    1
    14    12    13    1
    15    13    14    1
    16    14    15    1
    17    15    16    1
    18    16    17    3
    19     5     6    1
    20    22    23   ar
    21    23    24   ar
    22    24    25    1
    23    24    26   ar
    24    26    27    1
    25    27    28    3
    26    26    20   ar
    27     6     1    1
    28    15    11    1
    29     4     7    1
    30     4     8    1
@<TRIPOS>MOLECULE
*****
 28 30 0 0 0
SMALL
GASTEIGER

@<TRIPOS>ATOM
      1 N         139.3800  139.1687  165.6358 N.3     1  UNL1       -0.2673
      2 C         138.1715  138.3996  166.0810 C.3     1  UNL1        0.0885
      3 C         137.9373  138.7030  167.5312 C.3     1  UNL1        0.0753
      4 N         136.8332  138.1473  168.3811 N.3     1  UNL1       -0.3207
      5 C         139.0009  139.6597  167.9823 C.3     1  UNL1        0.0891
      6 C         139.8925  139.9474  166.8109 C.3     1  UNL1        0.0811
      7 H         136.2543  137.5221  167.8203 H       1  UNL1        0.1189
      8 H         136.2606  138.9125  168.7375 H       1  UNL1        0.1189
      9 C         139.1472  140.2286  169.3625 C.2     1  UNL1        0.1535
     10 O         138.2282  139.7802  170.4598 O.2     1  UNL1       -0.2960
     11 C         140.2126  141.2460  169.6452 C.3     1  UNL1        0.0717
     12 C         140.0225  142.7333  169.6873 C.3     1  UNL1        0.0084
     13 C         141.3475  143.3612  170.0036 C.3     1  UNL1        0.0015
     14 C         142.3565  142.2620  170.1570 C.3     1  UNL1        0.0155
     15 C         141.6551  140.9548  169.9355 C.3     1  UNL1        0.0983
     16 C         142.2856  139.5949  169.9941 C.1     1  UNL1        0.0725
     17 N         142.9161  138.2351  170.0526 N.1     1  UNL1       -0.1959
     18 C         139.9719  139.1605  164.2576 C.3     1  UNL1        0.0992
     19 C         144.8029  140.9908  163.7000 C.3     1  UNL1        0.0317
     20 C         143.3208  141.1715  163.5569 C.ar    1  UNL1       -0.0128
     21 C         142.3874  140.0757  163.9788 C.ar    1  UNL1       -0.0065
     22 C         140.9052  140.2563  163.8356 C.ar    1  UNL1       -0.0067
     23 C         140.3564  141.5328  163.2706 C.ar    1  UNL1       -0.0065
     24 C         141.2897  142.6286  162.8487 C.ar    1  UNL1       -0.0128
     25 C         140.7409  143.9052  162.2836 C.3     1  UNL1        0.0317
     26 C         142.7719  142.4479  162.9918 C.ar    1  UNL1        0.0605
     27 C         143.7053  143.5438  162.5699 C.1     1  UNL1        0.0998
     28 N         144.6385  144.6397  162.1479 N.1     1  UNL1       -0.1909
@<TRIPOS>BOND
     1    19    20    1
     2    20    21   ar
     3    21    22   ar
     4    22    18    1
     5    18     1    1
     6     1     2    1
     7     2     3    1
     8     3     4    1
     9     3     5    1
    10     5     9    1
    11     9    10    2
    12     9    11    1
    13    11    12    1
    14    12    13    1
    15    13    14    1
    16    14    15    1
    17    15    16    1
    18    16    17    3
    19     5     6    1
    20    22    23   ar
    21    23    24   ar
    22    24    25    1
    23    24    26   ar
    24    26    27    1
    25    27    28    3
    26    26    20   ar
    27     6     1    1
    28    15    11    1
    29     4     7    1
    30     4     8    1
