@<TRIPOS>MOLECULE
*****
 28 31 0 0 0
SMALL
GASTEIGER

@<TRIPOS>ATOM
      1 C         138.4762  141.3241  161.4030 C.3     1  UNL1        0.0497
      2 C         139.2760  142.0828  162.4201 C.ar    1  UNL1        0.0347
      3 C         139.8008  143.4795  162.2658 C.ar    1  UNL1        0.0070
      4 C         140.5406  143.8380  163.5205 C.ar    1  UNL1        0.0154
      5 C         140.4730  142.6629  164.4503 C.ar    1  UNL1        0.0593
      6 N         139.6914  141.5781  163.7702 N.ar    1  UNL1       -0.3328
      7 C         141.0803  142.5860  165.8197 C.ar    1  UNL1        0.0158
      8 C         142.5265  142.2216  165.9794 C.ar    1  UNL1        0.0011
      9 C         143.1338  142.1447  167.3488 C.ar    1  UNL1       -0.0042
     10 C         142.2949  142.4322  168.5585 C.ar    1  UNL1       -0.0225
     11 C         140.8486  142.7966  168.3988 C.ar    1  UNL1       -0.0042
     12 C         140.2413  142.8735  167.0294 C.ar    1  UNL1        0.0011
     13 C         142.9022  142.3553  169.9279 C.3     1  UNL1        0.0224
     14 C         142.0367  142.0592  171.1166 C.3     1  UNL1        0.0047
     15 C         144.3750  142.5746  170.1085 C.3     1  UNL1        0.0047
     16 C         139.3799  140.2260  164.3402 C.3     1  UNL1        0.0852
     17 C         138.3683  140.0904  165.4394 C.3     1  UNL1        0.0225
     18 C         138.0567  138.7383  166.0094 C.3     1  UNL1        0.0019
     19 C         138.7569  137.5218  165.4801 C.3     1  UNL1        0.0001
     20 C         139.7684  137.6575  164.3809 C.3     1  UNL1        0.0019
     21 C         140.0799  139.0096  163.8109 C.3     1  UNL1        0.0225
     22 C         139.6180  144.3626  161.0672 C.3     1  UNL1        0.1004
     23 N         140.6933  144.4439  160.0244 N.3     1  UNL1       -0.2646
     24 C         140.6344  145.5067  158.9677 C.3     1  UNL1        0.1049
     25 C         141.7096  145.5879  157.9250 C.3     1  UNL1        0.1595
     26 O         142.8437  144.6063  157.9391 O.3     1  UNL1       -0.3508
     27 C         142.9026  143.5435  158.9959 C.3     1  UNL1        0.1595
     28 C         141.8274  143.4623  160.0386 C.3     1  UNL1        0.1049
@<TRIPOS>BOND
     1     1     2    1
     2     2     3   ar
     3     3    22    1
     4    22    23    1
     5    23    24    1
     6    24    25    1
     7    25    26    1
     8    26    27    1
     9    27    28    1
    10     3     4   ar
    11     4     5   ar
    12     5     7    1
    13     7     8   ar
    14     8     9   ar
    15     9    10   ar
    16    10    13    1
    17    13    14    1
    18    13    15    1
    19    10    11   ar
    20    11    12   ar
    21     5     6   ar
    22     6    16    1
    23    16    17    1
    24    17    18    1
    25    18    19    1
    26    19    20    1
    27    20    21    1
    28     6     2   ar
    29    21    16    1
    30    28    23    1
    31    12     7   ar
@<TRIPOS>MOLECULE
*****
 28 31 0 0 0
SMALL
GASTEIGER

@<TRIPOS>ATOM
      1 C         141.4821  143.7764  160.7084 C.3     1  UNL1        0.0497
      2 C         142.2231  143.0615  161.7992 C.ar    1  UNL1        0.0347
      3 C         143.6069  142.4915  161.6980 C.ar    1  UNL1        0.0070
      4 C         143.9494  141.8688  163.0190 C.ar    1  UNL1        0.0154
      5 C         142.7774  142.0540  163.9366 C.ar    1  UNL1        0.0593
      6 N         141.7105  142.7912  163.1827 N.ar    1  UNL1       -0.3328
      7 C         142.6880  141.5846  165.3584 C.ar    1  UNL1        0.0158
      8 C         142.1931  140.2015  165.6619 C.ar    1  UNL1        0.0011
      9 C         142.1037  139.7321  167.0837 C.ar    1  UNL1       -0.0042
     10 C         142.5091  140.6457  168.2021 C.ar    1  UNL1       -0.0225
     11 C         143.0040  142.0288  167.8987 C.ar    1  UNL1       -0.0042
     12 C         143.0934  142.4983  166.4769 C.ar    1  UNL1        0.0011
     13 C         142.4197  140.1762  169.6239 C.3     1  UNL1        0.0224
     14 C         142.1263  141.1567  170.7204 C.3     1  UNL1        0.0047
     15 C         142.6236  138.7262  169.9492 C.3     1  UNL1        0.0047
     16 C         140.3668  143.1883  163.7183 C.3     1  UNL1        0.0852
     17 C         139.1691  142.3245  163.4546 C.3     1  UNL1        0.0225
     18 C         137.8254  142.7215  163.9902 C.3     1  UNL1        0.0019
     19 C         137.6794  143.9825  164.7895 C.3     1  UNL1        0.0001
     20 C         138.8770  144.8462  165.0532 C.3     1  UNL1        0.0019
     21 C         140.2207  144.4491  164.5176 C.3     1  UNL1        0.0225
     22 C         144.4925  142.5362  160.4883 C.3     1  UNL1        0.1004
     23 N         144.3016  141.5416  159.3817 N.3     1  UNL1       -0.2646
     24 C         144.8771  141.8115  158.0231 C.3     1  UNL1        0.1049
     25 C         144.6861  140.8169  156.9167 C.3     1  UNL1        0.1595
     26 O         143.9198  139.5523  157.1689 O.3     1  UNL1       -0.3508
     27 C         143.3444  139.2824  158.5275 C.3     1  UNL1        0.1595
     28 C         143.5353  140.2770  159.6340 C.3     1  UNL1        0.1049
@<TRIPOS>BOND
     1     1     2    1
     2     2     3   ar
     3     3    22    1
     4    22    23    1
     5    23    24    1
     6    24    25    1
     7    25    26    1
     8    26    27    1
     9    27    28    1
    10     3     4   ar
    11     4     5   ar
    12     5     7    1
    13     7     8   ar
    14     8     9   ar
    15     9    10   ar
    16    10    13    1
    17    13    14    1
    18    13    15    1
    19    10    11   ar
    20    11    12   ar
    21     5     6   ar
    22     6    16    1
    23    16    17    1
    24    17    18    1
    25    18    19    1
    26    19    20    1
    27    20    21    1
    28     6     2   ar
    29    21    16    1
    30    28    23    1
    31    12     7   ar
@<TRIPOS>MOLECULE
*****
 28 31 0 0 0
SMALL
GASTEIGER

@<TRIPOS>ATOM
      1 C         141.4842  143.7464  160.6358 C.3     1  UNL1        0.0497
      2 C         142.2274  143.0362  161.7281 C.ar    1  UNL1        0.0347
      3 C         143.6034  142.4488  161.6206 C.ar    1  UNL1        0.0070
      4 C         143.9515  141.8382  162.9458 C.ar    1  UNL1        0.0154
      5 C         142.7907  142.0481  163.8722 C.ar    1  UNL1        0.0593
      6 N         141.7251  142.7886  163.1196 N.ar    1  UNL1       -0.3328
      7 C         142.7096  141.5969  165.3004 C.ar    1  UNL1        0.0158
      8 C         142.2380  140.2102  165.6233 C.ar    1  UNL1        0.0011
      9 C         142.1569  139.7590  167.0515 C.ar    1  UNL1       -0.0042
     10 C         142.5475  140.6945  168.1569 C.ar    1  UNL1       -0.0225
     11 C         143.0191  142.0814  167.8341 C.ar    1  UNL1       -0.0042
     12 C         143.1002  142.5326  166.4059 C.ar    1  UNL1        0.0011
     13 C         142.4664  140.2434  169.5851 C.3     1  UNL1        0.0224
     14 C         142.6088  138.7885  169.9213 C.3     1  UNL1        0.0047
     15 C         142.2429  141.2471  170.6772 C.3     1  UNL1        0.0047
     16 C         140.3913  143.2078  163.6632 C.3     1  UNL1        0.0852
     17 C         140.2874  144.4160  164.5460 C.3     1  UNL1        0.0225
     18 C         138.9537  144.8353  165.0896 C.3     1  UNL1        0.0019
     19 C         137.7239  144.0462  164.7502 C.3     1  UNL1        0.0001
     20 C         137.8278  142.8380  163.8674 C.3     1  UNL1        0.0019
     21 C         139.1616  142.4188  163.3239 C.3     1  UNL1        0.0225
     22 C         144.4778  142.4686  160.4020 C.3     1  UNL1        0.1004
     23 N         144.2593  141.4682  159.3058 N.3     1  UNL1       -0.2646
     24 C         143.4458  140.2353  159.5668 C.3     1  UNL1        0.1049
     25 C         143.2274  139.2350  158.4706 C.3     1  UNL1        0.1595
     26 O         143.8225  139.4675  157.1135 O.3     1  UNL1       -0.3508
     27 C         144.6360  140.7004  156.8526 C.3     1  UNL1        0.1595
     28 C         144.8544  141.7007  157.9487 C.3     1  UNL1        0.1049
@<TRIPOS>BOND
     1     1     2    1
     2     2     3   ar
     3     3    22    1
     4    22    23    1
     5    23    24    1
     6    24    25    1
     7    25    26    1
     8    26    27    1
     9    27    28    1
    10     3     4   ar
    11     4     5   ar
    12     5     7    1
    13     7     8   ar
    14     8     9   ar
    15     9    10   ar
    16    10    13    1
    17    13    14    1
    18    13    15    1
    19    10    11   ar
    20    11    12   ar
    21     5     6   ar
    22     6    16    1
    23    16    17    1
    24    17    18    1
    25    18    19    1
    26    19    20    1
    27    20    21    1
    28     6     2   ar
    29    21    16    1
    30    28    23    1
    31    12     7   ar
@<TRIPOS>MOLECULE
*****
 28 31 0 0 0
SMALL
GASTEIGER

@<TRIPOS>ATOM
      1 C         141.8554  140.2385  160.5519 C.3     1  UNL1        0.0497
      2 C         142.1327  141.1600  161.7025 C.ar    1  UNL1        0.0347
      3 C         142.8476  142.4764  161.6254 C.ar    1  UNL1        0.0070
      4 C         142.9005  143.0568  163.0075 C.ar    1  UNL1        0.0154
      5 C         142.2182  142.0992  163.9389 C.ar    1  UNL1        0.0593
      6 N         141.7436  140.9269  163.1323 N.ar    1  UNL1       -0.3328
      7 C         142.0415  142.2818  165.4172 C.ar    1  UNL1        0.0158
      8 C         140.6980  142.6525  165.9718 C.ar    1  UNL1        0.0011
      9 C         140.5213  142.8351  167.4501 C.ar    1  UNL1       -0.0042
     10 C         141.6880  142.6470  168.3738 C.ar    1  UNL1       -0.0225
     11 C         143.0315  142.2763  167.8192 C.ar    1  UNL1       -0.0042
     12 C         143.2082  142.0937  166.3409 C.ar    1  UNL1        0.0011
     13 C         141.5112  142.8296  169.8521 C.3     1  UNL1        0.0224
     14 C         142.6940  143.1586  170.7139 C.3     1  UNL1        0.0047
     15 C         140.1516  142.6832  170.4686 C.3     1  UNL1        0.0047
     16 C         141.0090  139.7313  163.6625 C.3     1  UNL1        0.0852
     17 C         139.5230  139.7901  163.8580 C.3     1  UNL1        0.0225
     18 C         138.7883  138.5946  164.3881 C.3     1  UNL1        0.0019
     19 C         139.5398  137.3403  164.7228 C.3     1  UNL1        0.0001
     20 C         141.0258  137.2815  164.5273 C.3     1  UNL1        0.0019
     21 C         141.7605  138.4770  163.9971 C.3     1  UNL1        0.0225
     22 C         143.4109  143.1023  160.3841 C.3     1  UNL1        0.1004
     23 N         142.5269  143.9186  159.4883 N.3     1  UNL1       -0.2646
     24 C         142.8243  144.0086  158.0209 C.3     1  UNL1        0.1049
     25 C         141.9403  144.8247  157.1251 C.3     1  UNL1        0.1595
     26 O         140.7589  145.5509  157.6968 O.3     1  UNL1       -0.3508
     27 C         140.4615  145.4610  159.1643 C.3     1  UNL1        0.1595
     28 C         141.3454  144.6448  160.0600 C.3     1  UNL1        0.1049
@<TRIPOS>BOND
     1     1     2    1
     2     2     3   ar
     3     3    22    1
     4    22    23    1
     5    23    24    1
     6    24    25    1
     7    25    26    1
     8    26    27    1
     9    27    28    1
    10     3     4   ar
    11     4     5   ar
    12     5     7    1
    13     7     8   ar
    14     8     9   ar
    15     9    10   ar
    16    10    13    1
    17    13    14    1
    18    13    15    1
    19    10    11   ar
    20    11    12   ar
    21     5     6   ar
    22     6    16    1
    23    16    17    1
    24    17    18    1
    25    18    19    1
    26    19    20    1
    27    20    21    1
    28     6     2   ar
    29    21    16    1
    30    28    23    1
    31    12     7   ar
@<TRIPOS>MOLECULE
*****
 28 31 0 0 0
SMALL
GASTEIGER

@<TRIPOS>ATOM
      1 C         138.5495  141.3800  160.7765 C.3     1  UNL1        0.0497
      2 C         139.0942  140.5040  161.8655 C.ar    1  UNL1        0.0347
      3 C         139.4304  139.0476  161.7402 C.ar    1  UNL1        0.0070
      4 C         139.9424  138.5742  163.0683 C.ar    1  UNL1        0.0154
      5 C         139.9226  139.7380  164.0144 C.ar    1  UNL1        0.0593
      6 N         139.3984  140.9308  163.2709 N.ar    1  UNL1       -0.3328
      7 C         140.3517  139.7135  165.4515 C.ar    1  UNL1        0.0158
      8 C         141.7930  139.4881  165.8001 C.ar    1  UNL1        0.0011
      9 C         142.2221  139.4636  167.2372 C.ar    1  UNL1       -0.0042
     10 C         141.2098  139.6644  168.3257 C.ar    1  UNL1       -0.0225
     11 C         139.7684  139.8897  167.9771 C.ar    1  UNL1       -0.0042
     12 C         139.3393  139.9143  166.5400 C.ar    1  UNL1        0.0011
     13 C         141.6389  139.6398  169.7628 C.3     1  UNL1        0.0224
     14 C         142.7128  138.6925  170.2088 C.3     1  UNL1        0.0047
     15 C         140.9939  140.5627  170.7539 C.3     1  UNL1        0.0047
     16 C         139.2113  142.3084  163.8341 C.3     1  UNL1        0.0852
     17 C         140.3863  143.2318  163.9635 C.3     1  UNL1        0.0225
     18 C         140.1992  144.6094  164.5267 C.3     1  UNL1        0.0019
     19 C         138.8370  145.0636  164.9606 C.3     1  UNL1        0.0001
     20 C         137.6620  144.1402  164.8312 C.3     1  UNL1        0.0019
     21 C         137.8492  142.7626  164.2680 C.3     1  UNL1        0.0225
     22 C         139.2809  138.2114  160.5040 C.3     1  UNL1        0.1004
     23 N         140.2818  138.3295  159.3930 N.3     1  UNL1       -0.2646
     24 C         141.7388  138.4919  159.7103 C.3     1  UNL1        0.1049
     25 C         142.7397  138.6100  158.5993 C.3     1  UNL1        0.1595
     26 O         142.2836  138.5657  157.1711 O.3     1  UNL1       -0.3508
     27 C         140.8266  138.4033  156.8537 C.3     1  UNL1        0.1595
     28 C         139.8257  138.2852  157.9647 C.3     1  UNL1        0.1049
@<TRIPOS>BOND
     1     1     2    1
     2     2     3   ar
     3     3    22    1
     4    22    23    1
     5    23    24    1
     6    24    25    1
     7    25    26    1
     8    26    27    1
     9    27    28    1
    10     3     4   ar
    11     4     5   ar
    12     5     7    1
    13     7     8   ar
    14     8     9   ar
    15     9    10   ar
    16    10    13    1
    17    13    14    1
    18    13    15    1
    19    10    11   ar
    20    11    12   ar
    21     5     6   ar
    22     6    16    1
    23    16    17    1
    24    17    18    1
    25    18    19    1
    26    19    20    1
    27    20    21    1
    28     6     2   ar
    29    21    16    1
    30    28    23    1
    31    12     7   ar
@<TRIPOS>MOLECULE
*****
 28 31 0 0 0
SMALL
GASTEIGER

@<TRIPOS>ATOM
      1 C         144.0181  140.9440  160.7411 C.3     1  UNL1        0.0497
      2 C         143.3534  140.2204  161.8746 C.ar    1  UNL1        0.0347
      3 C         142.9141  138.7863  161.8682 C.ar    1  UNL1        0.0070
      4 C         142.3005  138.4835  163.2031 C.ar    1  UNL1        0.0154
      5 C         142.3607  139.7305  164.0345 C.ar    1  UNL1        0.0593
      6 N         143.0115  140.8040  163.2134 N.ar    1  UNL1       -0.3328
      7 C         141.8584  139.8781  165.4401 C.ar    1  UNL1        0.0158
      8 C         140.4571  140.3510  165.6900 C.ar    1  UNL1        0.0011
      9 C         139.9548  140.4986  167.0957 C.ar    1  UNL1       -0.0042
     10 C         140.8538  140.1733  168.2514 C.ar    1  UNL1       -0.0225
     11 C         142.2552  139.7004  168.0016 C.ar    1  UNL1       -0.0042
     12 C         142.7575  139.5528  166.5959 C.ar    1  UNL1        0.0011
     13 C         140.3515  140.3209  169.6571 C.3     1  UNL1        0.0224
     14 C         141.3236  140.4822  170.7879 C.3     1  UNL1        0.0047
     15 C         138.8769  140.3073  169.9319 C.3     1  UNL1        0.0047
     16 C         143.2741  142.2137  163.6539 C.3     1  UNL1        0.0852
     17 C         144.3102  142.4911  164.7025 C.3     1  UNL1        0.0225
     18 C         144.5729  143.9007  165.1430 C.3     1  UNL1        0.0019
     19 C         143.7994  145.0329  164.5348 C.3     1  UNL1        0.0001
     20 C         142.7633  144.7555  163.4862 C.3     1  UNL1        0.0019
     21 C         142.5007  143.3459  163.0457 C.3     1  UNL1        0.0225
     22 C         143.0622  137.8239  160.7272 C.3     1  UNL1        0.1004
     23 N         142.1859  137.9550  159.5168 N.3     1  UNL1       -0.2646
     24 C         140.8267  138.5776  159.6387 C.3     1  UNL1        0.1049
     25 C         139.9506  138.7087  158.4283 C.3     1  UNL1        0.1595
     26 O         140.4336  138.2173  157.0960 O.3     1  UNL1       -0.3508
     27 C         141.7928  137.5947  156.9740 C.3     1  UNL1        0.1595
     28 C         142.6690  137.4635  158.1844 C.3     1  UNL1        0.1049
@<TRIPOS>BOND
     1     1     2    1
     2     2     3   ar
     3     3    22    1
     4    22    23    1
     5    23    24    1
     6    24    25    1
     7    25    26    1
     8    26    27    1
     9    27    28    1
    10     3     4   ar
    11     4     5   ar
    12     5     7    1
    13     7     8   ar
    14     8     9   ar
    15     9    10   ar
    16    10    13    1
    17    13    14    1
    18    13    15    1
    19    10    11   ar
    20    11    12   ar
    21     5     6   ar
    22     6    16    1
    23    16    17    1
    24    17    18    1
    25    18    19    1
    26    19    20    1
    27    20    21    1
    28     6     2   ar
    29    21    16    1
    30    28    23    1
    31    12     7   ar
@<TRIPOS>MOLECULE
*****
 28 31 0 0 0
SMALL
GASTEIGER

@<TRIPOS>ATOM
      1 C         142.1730  139.4669  160.1680 C.3     1  UNL1        0.0497
      2 C         141.2791  139.6274  161.3618 C.ar    1  UNL1        0.0347
      3 C         139.8382  139.2189  161.4456 C.ar    1  UNL1        0.0070
      4 C         139.3377  139.5637  162.8170 C.ar    1  UNL1        0.0154
      5 C         140.4692  140.1852  163.5807 C.ar    1  UNL1        0.0593
      6 N         141.6691  140.2246  162.6813 N.ar    1  UNL1       -0.3328
      7 C         140.4111  140.6803  164.9954 C.ar    1  UNL1        0.0158
      8 C         140.4798  142.1517  165.2785 C.ar    1  UNL1        0.0011
      9 C         140.4218  142.6469  166.6932 C.ar    1  UNL1       -0.0042
     10 C         140.2950  141.6707  167.8248 C.ar    1  UNL1       -0.0225
     11 C         140.2262  140.1992  167.5419 C.ar    1  UNL1       -0.0042
     12 C         140.2843  139.7040  166.1272 C.ar    1  UNL1        0.0011
     13 C         140.2369  142.1658  169.2395 C.3     1  UNL1        0.0224
     14 C         140.4705  143.6174  169.5363 C.3     1  UNL1        0.0047
     15 C         139.9451  141.2093  170.3576 C.3     1  UNL1        0.0047
     16 C         143.0215  140.7660  163.0388 C.3     1  UNL1        0.0852
     17 C         143.3709  142.1874  162.7109 C.3     1  UNL1        0.0225
     18 C         144.7233  142.7290  163.0683 C.3     1  UNL1        0.0019
     19 C         145.7264  141.8490  163.7537 C.3     1  UNL1        0.0001
     20 C         145.3769  140.4277  164.0817 C.3     1  UNL1        0.0019
     21 C         144.0245  139.8862  163.7242 C.3     1  UNL1        0.0225
     22 C         139.0383  138.5783  160.3503 C.3     1  UNL1        0.1004
     23 N         138.8604  139.2854  159.0394 N.3     1  UNL1       -0.2646
     24 C         139.5331  138.7596  157.8062 C.3     1  UNL1        0.1049
     25 C         139.3551  139.4667  156.4954 C.3     1  UNL1        0.1595
     26 O         138.5044  140.6997  156.4179 O.3     1  UNL1       -0.3508
     27 C         137.8317  141.2256  157.6511 C.3     1  UNL1        0.1595
     28 C         138.0097  140.5184  158.9619 C.3     1  UNL1        0.1049
@<TRIPOS>BOND
     1     1     2    1
     2     2     3   ar
     3     3    22    1
     4    22    23    1
     5    23    24    1
     6    24    25    1
     7    25    26    1
     8    26    27    1
     9    27    28    1
    10     3     4   ar
    11     4     5   ar
    12     5     7    1
    13     7     8   ar
    14     8     9   ar
    15     9    10   ar
    16    10    13    1
    17    13    14    1
    18    13    15    1
    19    10    11   ar
    20    11    12   ar
    21     5     6   ar
    22     6    16    1
    23    16    17    1
    24    17    18    1
    25    18    19    1
    26    19    20    1
    27    20    21    1
    28     6     2   ar
    29    21    16    1
    30    28    23    1
    31    12     7   ar
@<TRIPOS>MOLECULE
*****
 28 31 0 0 0
SMALL
GASTEIGER

@<TRIPOS>ATOM
      1 C         141.2917  144.8824  158.7364 C.3     1  UNL1        0.0497
      2 C         140.4769  143.8446  159.4498 C.ar    1  UNL1        0.0347
      3 C         139.3623  143.0362  158.8547 C.ar    1  UNL1        0.0070
      4 C         138.8302  142.1249  159.9208 C.ar    1  UNL1        0.0154
      5 C         139.6158  142.3701  161.1748 C.ar    1  UNL1        0.0593
      6 N         140.6336  143.4329  160.8837 N.ar    1  UNL1       -0.3328
      7 C         139.4185  141.6747  162.4891 C.ar    1  UNL1        0.0158
      8 C         138.2084  141.9758  163.3227 C.ar    1  UNL1        0.0011
      9 C         138.0111  141.2803  164.6370 C.ar    1  UNL1       -0.0042
     10 C         139.0237  140.2837  165.1176 C.ar    1  UNL1       -0.0225
     11 C         140.2339  139.9825  164.2840 C.ar    1  UNL1       -0.0042
     12 C         140.4312  140.6780  162.9697 C.ar    1  UNL1        0.0011
     13 C         138.8264  139.5883  166.4319 C.3     1  UNL1        0.0224
     14 C         139.5245  140.0930  167.6598 C.3     1  UNL1        0.0047
     15 C         137.9309  138.3880  166.5183 C.3     1  UNL1        0.0047
     16 C         141.6327  143.9869  161.8559 C.3     1  UNL1        0.0852
     17 C         141.1949  144.9645  162.9059 C.3     1  UNL1        0.0225
     18 C         142.1939  145.5185  163.8781 C.3     1  UNL1        0.0019
     19 C         143.6308  145.0947  163.8002 C.3     1  UNL1        0.0001
     20 C         144.0685  144.1171  162.7502 C.3     1  UNL1        0.0019
     21 C         143.0694  143.5632  161.7780 C.3     1  UNL1        0.0225
     22 C         138.8669  143.1237  157.4416 C.3     1  UNL1        0.1004
     23 N         138.2751  141.9155  156.7781 N.3     1  UNL1       -0.2646
     24 C         139.1506  140.7501  156.4238 C.3     1  UNL1        0.1049
     25 C         138.5588  139.5420  155.7604 C.3     1  UNL1        0.1595
     26 O         137.0916  139.4992  155.4512 O.3     1  UNL1       -0.3508
     27 C         136.2162  140.6646  155.8055 C.3     1  UNL1        0.1595
     28 C         136.8080  141.8727  156.4689 C.3     1  UNL1        0.1049
@<TRIPOS>BOND
     1     1     2    1
     2     2     3   ar
     3     3    22    1
     4    22    23    1
     5    23    24    1
     6    24    25    1
     7    25    26    1
     8    26    27    1
     9    27    28    1
    10     3     4   ar
    11     4     5   ar
    12     5     7    1
    13     7     8   ar
    14     8     9   ar
    15     9    10   ar
    16    10    13    1
    17    13    14    1
    18    13    15    1
    19    10    11   ar
    20    11    12   ar
    21     5     6   ar
    22     6    16    1
    23    16    17    1
    24    17    18    1
    25    18    19    1
    26    19    20    1
    27    20    21    1
    28     6     2   ar
    29    21    16    1
    30    28    23    1
    31    12     7   ar
@<TRIPOS>MOLECULE
*****
 28 31 0 0 0
SMALL
GASTEIGER

@<TRIPOS>ATOM
      1 C         141.9233  142.4754  160.1263 C.3     1  UNL1        0.0497
      2 C         140.9987  142.1965  161.2741 C.ar    1  UNL1        0.0347
      3 C         139.4998  142.2233  161.2255 C.ar    1  UNL1        0.0070
      4 C         138.9855  141.8852  162.5934 C.ar    1  UNL1        0.0154
      5 C         140.1666  141.6494  163.4875 C.ar    1  UNL1        0.0593
      6 N         141.4108  141.8418  162.6721 N.ar    1  UNL1       -0.3328
      7 C         140.1128  141.2852  164.9416 C.ar    1  UNL1        0.0158
      8 C         140.6808  142.2179  165.9698 C.ar    1  UNL1        0.0011
      9 C         140.6271  141.8537  167.4239 C.ar    1  UNL1       -0.0042
     10 C         140.0054  140.5568  167.8498 C.ar    1  UNL1       -0.0225
     11 C         139.4374  139.6241  166.8216 C.ar    1  UNL1       -0.0042
     12 C         139.4911  139.9883  165.3675 C.ar    1  UNL1        0.0011
     13 C         139.9517  140.1926  169.3039 C.3     1  UNL1        0.0224
     14 C         138.6767  140.3677  170.0743 C.3     1  UNL1        0.0047
     15 C         141.1731  139.6533  169.9876 C.3     1  UNL1        0.0047
     16 C         142.8199  141.7038  163.1677 C.3     1  UNL1        0.0852
     17 C         143.4959  140.3650  163.1429 C.3     1  UNL1        0.0225
     18 C         144.9049  140.2268  163.6385 C.3     1  UNL1        0.0019
     19 C         145.6379  141.4277  164.1590 C.3     1  UNL1        0.0001
     20 C         144.9619  142.7665  164.1837 C.3     1  UNL1        0.0019
     21 C         143.5529  142.9045  163.6881 C.3     1  UNL1        0.0225
     22 C         138.6622  142.5337  160.0205 C.3     1  UNL1        0.1004
     23 N         138.5862  141.5538  158.8872 N.3     1  UNL1       -0.2646
     24 C         137.8240  141.9032  157.6435 C.3     1  UNL1        0.1049
     25 C         137.7480  140.9234  156.5103 C.3     1  UNL1        0.1595
     26 O         138.4342  139.5941  156.6210 O.3     1  UNL1       -0.3508
     27 C         139.1963  139.2447  157.8648 C.3     1  UNL1        0.1595
     28 C         139.2723  140.2246  158.9979 C.3     1  UNL1        0.1049
@<TRIPOS>BOND
     1     1     2    1
     2     2     3   ar
     3     3    22    1
     4    22    23    1
     5    23    24    1
     6    24    25    1
     7    25    26    1
     8    26    27    1
     9    27    28    1
    10     3     4   ar
    11     4     5   ar
    12     5     7    1
    13     7     8   ar
    14     8     9   ar
    15     9    10   ar
    16    10    13    1
    17    13    14    1
    18    13    15    1
    19    10    11   ar
    20    11    12   ar
    21     5     6   ar
    22     6    16    1
    23    16    17    1
    24    17    18    1
    25    18    19    1
    26    19    20    1
    27    20    21    1
    28     6     2   ar
    29    21    16    1
    30    28    23    1
    31    12     7   ar
