@<TRIPOS>MOLECULE
*****
 34 38 0 0 0
SMALL
GASTEIGER

@<TRIPOS>ATOM
      1 N         139.7867  138.3226  161.8452 N.3     1  UNL1       -0.2704
      2 C         139.0507  139.1695  162.8408 C.3     1  UNL1        0.0722
      3 C         139.6461  139.4249  164.1936 C.3     1  UNL1        0.0195
      4 C         140.9775  138.8335  164.5509 C.3     1  UNL1        0.0300
      5 C         141.7134  137.9866  163.5554 C.3     1  UNL1        0.0195
      6 C         141.1180  137.7312  162.2025 C.3     1  UNL1        0.0722
      7 C         142.2931  138.3118  165.0480 C.3     1  UNL1        0.0874
      8 C         142.4905  138.8113  166.4486 C.2     1  UNL1        0.2305
      9 O         143.6738  138.5299  167.3265 O.2     1  UNL1       -0.2745
     10 N         141.2969  139.6418  166.8171 N.am    1  UNL1       -0.2425
     11 C         140.3618  139.6555  165.6443 C.3     1  UNL1        0.1001
     12 C         141.0770  140.3365  168.1281 C.ar    1  UNL1        0.1574
     13 C         139.8414  140.0522  168.9296 C.ar    1  UNL1        0.0414
     14 C         139.6215  140.7470  170.2407 C.ar    1  UNL1        0.0651
     15 C         140.6373  141.7260  170.7503 C.ar    1  UNL1        0.2766
     16 O         140.4174  142.4208  172.0614 O.2     1  UNL1       -0.2655
     17 N         141.8730  142.0103  169.9488 N.ar    1  UNL1       -0.2134
     18 C         142.8888  142.9894  170.4584 C.3     1  UNL1        0.1571
     19 N         142.0928  141.3155  168.6377 N.ar    1  UNL1       -0.1513
     20 C         139.1913  138.0672  160.4923 C.3     1  UNL1        0.1063
     21 C         139.3748  139.0687  159.3909 C.3     1  UNL1        0.1483
     22 O         139.3312  138.6249  157.9587 O.3     1  UNL1       -0.3786
     23 H         139.4664  139.3906  157.3787 H       1  UNL1        0.2108
     24 C         142.1680  140.1545  159.5306 C.3     1  UNL1        0.0306
     25 C         140.9985  141.0570  159.7915 C.ar    1  UNL1       -0.0238
     26 C         139.6020  140.5141  159.7216 C.ar    1  UNL1        0.0015
     27 C         138.4326  141.4166  159.9824 C.ar    1  UNL1       -0.0020
     28 C         138.6597  142.8619  160.3131 C.ar    1  UNL1        0.0060
     29 C         140.0562  143.4048  160.3830 C.ar    1  UNL1        0.0748
     30 C         141.2257  142.5023  160.1222 C.ar    1  UNL1        0.0233
     31 C         142.4786  143.3152  160.2615 C.3     1  UNL1        0.2352
     32 O         142.0836  144.7200  160.6085 O.3     1  UNL1       -0.4404
     33 C         140.5865  144.7754  160.6836 C.2     1  UNL1        0.3413
     34 O         139.7639  145.9884  161.0031 O.2     1  UNL1       -0.2449
@<TRIPOS>BOND
     1    24    25    1
     2    25    26   ar
     3    26    21    1
     4    21    22    1
     5    21    20    1
     6    20     1    1
     7     1     2    1
     8     2     3    1
     9     3     4    1
    10     4     5    1
    11     5     6    1
    12     4     7    1
    13     7     8    1
    14     8     9    2
    15     8    10   am
    16    10    12    1
    17    12    13   ar
    18    13    14   ar
    19    14    15   ar
    20    15    16    2
    21    15    17   ar
    22    17    18    1
    23    17    19   ar
    24    10    11    1
    25    26    27   ar
    26    27    28   ar
    27    28    29   ar
    28    29    30   ar
    29    30    31    1
    30    31    32    1
    31    32    33    1
    32    33    34    2
    33    30    25   ar
    34     6     1    1
    35    19    12   ar
    36    33    29    1
    37    11     4    1
    38    22    23    1
@<TRIPOS>MOLECULE
*****
 34 38 0 0 0
SMALL
GASTEIGER

@<TRIPOS>ATOM
      1 N         140.1490  138.5751  161.7866 N.3     1  UNL1       -0.2704
      2 C         141.0954  139.4066  162.6006 C.3     1  UNL1        0.0722
      3 C         140.8339  139.6275  164.0610 C.3     1  UNL1        0.0195
      4 C         139.6259  139.0168  164.7074 C.3     1  UNL1        0.0300
      5 C         138.6794  138.1853  163.8934 C.3     1  UNL1        0.0195
      6 C         138.9410  137.9644  162.4330 C.3     1  UNL1        0.0722
      7 C         138.4658  138.4730  165.4875 C.3     1  UNL1        0.0874
      8 C         138.6015  138.9404  166.9064 C.2     1  UNL1        0.2305
      9 O         137.6588  138.6297  168.0310 O.2     1  UNL1       -0.2745
     10 N         139.8454  139.7732  167.0032 N.am    1  UNL1       -0.2425
     11 C         140.4785  139.8204  165.6442 C.3     1  UNL1        0.1001
     12 C         140.3649  140.4413  168.2415 C.ar    1  UNL1        0.1574
     13 C         141.1091  139.6414  169.2693 C.ar    1  UNL1        0.0414
     14 C         141.6287  140.3096  170.5077 C.ar    1  UNL1        0.0651
     15 C         141.4041  141.7777  170.7183 C.ar    1  UNL1        0.2766
     16 O         141.9236  142.4458  171.9567 O.2     1  UNL1       -0.2655
     17 N         140.6599  142.5776  169.6905 N.ar    1  UNL1       -0.2134
     18 C         140.4352  144.0457  169.9011 C.3     1  UNL1        0.1571
     19 N         140.1403  141.9093  168.4521 N.ar    1  UNL1       -0.1513
     20 C         140.4105  138.3541  160.3261 C.3     1  UNL1        0.1063
     21 C         139.8556  139.3098  159.3119 C.3     1  UNL1        0.1483
     22 O         139.2545  138.7885  158.0403 O.3     1  UNL1       -0.3786
     23 H         138.9459  139.5325  157.4998 H       1  UNL1        0.2108
     24 C         142.1582  140.9391  158.2902 C.3     1  UNL1        0.0306
     25 C         141.0532  141.6015  159.0583 C.ar    1  UNL1       -0.0238
     26 C         139.9019  140.7869  159.5692 C.ar    1  UNL1        0.0015
     27 C         138.7968  141.4494  160.3373 C.ar    1  UNL1       -0.0020
     28 C         138.8431  142.9264  160.5946 C.ar    1  UNL1        0.0060
     29 C         139.9943  143.7409  160.0838 C.ar    1  UNL1        0.0748
     30 C         141.0994  143.0785  159.3156 C.ar    1  UNL1        0.0233
     31 C         142.0984  144.1322  158.9391 C.3     1  UNL1        0.2352
     32 O         141.6108  145.4458  159.4744 O.3     1  UNL1       -0.4404
     33 C         140.3104  145.2040  160.1819 C.2     1  UNL1        0.3413
     34 O         139.4731  146.2428  160.8672 O.2     1  UNL1       -0.2449
@<TRIPOS>BOND
     1    24    25    1
     2    25    26   ar
     3    26    21    1
     4    21    22    1
     5    21    20    1
     6    20     1    1
     7     1     2    1
     8     2     3    1
     9     3     4    1
    10     4     5    1
    11     5     6    1
    12     4     7    1
    13     7     8    1
    14     8     9    2
    15     8    10   am
    16    10    12    1
    17    12    13   ar
    18    13    14   ar
    19    14    15   ar
    20    15    16    2
    21    15    17   ar
    22    17    18    1
    23    17    19   ar
    24    10    11    1
    25    26    27   ar
    26    27    28   ar
    27    28    29   ar
    28    29    30   ar
    29    30    31    1
    30    31    32    1
    31    32    33    1
    32    33    34    2
    33    30    25   ar
    34     6     1    1
    35    19    12   ar
    36    33    29    1
    37    11     4    1
    38    22    23    1
@<TRIPOS>MOLECULE
*****
 34 38 0 0 0
SMALL
GASTEIGER

@<TRIPOS>ATOM
      1 N         138.4887  140.9143  164.2034 N.3     1  UNL1       -0.2704
      2 C         138.9555  140.6710  162.7988 C.3     1  UNL1        0.0722
      3 C         139.3222  141.8293  161.9192 C.3     1  UNL1        0.0195
      4 C         139.2222  143.2309  162.4442 C.3     1  UNL1        0.0300
      5 C         138.7554  143.4742  163.8487 C.3     1  UNL1        0.0195
      6 C         138.3887  142.3159  164.7284 C.3     1  UNL1        0.0722
      7 C         139.1730  144.6800  162.8284 C.3     1  UNL1        0.0874
      8 C         139.6229  145.4883  161.6475 C.2     1  UNL1        0.2305
      9 O         139.7272  146.9835  161.5906 O.2     1  UNL1       -0.2745
     10 N         139.9502  144.5386  160.5334 N.am    1  UNL1       -0.2425
     11 C         139.7025  143.1435  161.0258 C.3     1  UNL1        0.1001
     12 C         140.4392  144.9174  159.1670 C.ar    1  UNL1        0.1574
     13 C         141.7285  144.3528  158.6486 C.ar    1  UNL1        0.0414
     14 C         142.2175  144.7317  157.2821 C.ar    1  UNL1        0.0651
     15 C         141.4173  145.6753  156.4340 C.ar    1  UNL1        0.2766
     16 O         141.9063  146.0542  155.0675 O.2     1  UNL1       -0.2655
     17 N         140.1279  146.2400  156.9524 N.ar    1  UNL1       -0.2134
     18 C         139.3276  147.1836  156.1044 C.3     1  UNL1        0.1571
     19 N         139.6389  145.8610  158.3189 N.ar    1  UNL1       -0.1513
     20 C         138.1220  139.7559  165.0831 C.3     1  UNL1        0.1063
     21 C         139.1522  139.1435  165.9851 C.3     1  UNL1        0.1483
     22 O         139.7717  137.8246  165.6293 O.3     1  UNL1       -0.3786
     23 H         140.4124  137.5734  166.3129 H       1  UNL1        0.2108
     24 C         141.6146  140.8570  166.0074 C.3     1  UNL1        0.0306
     25 C         140.7941  140.7068  167.2541 C.ar    1  UNL1       -0.0238
     26 C         139.5629  139.8501  167.2430 C.ar    1  UNL1        0.0015
     27 C         138.7425  139.6999  168.4897 C.ar    1  UNL1       -0.0020
     28 C         139.1532  140.4064  169.7475 C.ar    1  UNL1        0.0060
     29 C         140.3844  141.2631  169.7586 C.ar    1  UNL1        0.0748
     30 C         141.2049  141.4133  168.5119 C.ar    1  UNL1        0.0233
     31 C         142.3600  142.3181  168.8234 C.3     1  UNL1        0.2352
     32 O         142.2534  142.7271  170.2627 O.3     1  UNL1       -0.4404
     33 C         141.0324  142.0751  170.8406 C.2     1  UNL1        0.3413
     34 O         140.5450  142.2111  172.2527 O.2     1  UNL1       -0.2449
@<TRIPOS>BOND
     1    24    25    1
     2    25    26   ar
     3    26    21    1
     4    21    22    1
     5    21    20    1
     6    20     1    1
     7     1     2    1
     8     2     3    1
     9     3     4    1
    10     4     5    1
    11     5     6    1
    12     4     7    1
    13     7     8    1
    14     8     9    2
    15     8    10   am
    16    10    12    1
    17    12    13   ar
    18    13    14   ar
    19    14    15   ar
    20    15    16    2
    21    15    17   ar
    22    17    18    1
    23    17    19   ar
    24    10    11    1
    25    26    27   ar
    26    27    28   ar
    27    28    29   ar
    28    29    30   ar
    29    30    31    1
    30    31    32    1
    31    32    33    1
    32    33    34    2
    33    30    25   ar
    34     6     1    1
    35    19    12   ar
    36    33    29    1
    37    11     4    1
    38    22    23    1
@<TRIPOS>MOLECULE
*****
 34 38 0 0 0
SMALL
GASTEIGER

@<TRIPOS>ATOM
      1 N         138.6494  139.1754  164.8093 N.3     1  UNL1       -0.2704
      2 C         137.9900  140.3296  164.1145 C.3     1  UNL1        0.0722
      3 C         138.0016  140.4092  162.6167 C.3     1  UNL1        0.0195
      4 C         138.6727  139.3346  161.8137 C.3     1  UNL1        0.0300
      5 C         139.3322  138.1804  162.5085 C.3     1  UNL1        0.0195
      6 C         139.3205  138.1008  164.0063 C.3     1  UNL1        0.0722
      7 C         139.3011  138.3404  160.8827 C.3     1  UNL1        0.0874
      8 C         139.0748  138.8138  159.4774 C.2     1  UNL1        0.2305
      9 O         139.5357  138.1218  158.2289 O.2     1  UNL1       -0.2745
     10 N         138.3065  140.1007  159.5399 N.am    1  UNL1       -0.2425
     11 C         138.0581  140.4226  160.9837 C.3     1  UNL1        0.1001
     12 C         137.8644  140.9214  158.3649 C.ar    1  UNL1        0.1574
     13 C         138.5455  142.2227  158.0602 C.ar    1  UNL1        0.0414
     14 C         138.1034  143.0435  156.8851 C.ar    1  UNL1        0.0651
     15 C         136.9802  142.5631  156.0147 C.ar    1  UNL1        0.2766
     16 O         136.5380  143.3840  154.8397 O.2     1  UNL1       -0.2655
     17 N         136.2990  141.2618  156.3194 N.ar    1  UNL1       -0.2134
     18 C         135.1757  140.7814  155.4491 C.3     1  UNL1        0.1571
     19 N         136.7412  140.4411  157.4945 N.ar    1  UNL1       -0.1513
     20 C         138.6378  139.0957  166.3072 C.3     1  UNL1        0.1063
     21 C         139.7043  139.7875  167.1033 C.3     1  UNL1        0.1483
     22 O         139.5016  140.0408  168.5678 O.3     1  UNL1       -0.3786
     23 H         140.2801  140.4933  168.9285 H       1  UNL1        0.2108
     24 C         140.0175  142.6298  166.1961 C.3     1  UNL1        0.0306
     25 C         141.1303  141.6471  165.9814 C.ar    1  UNL1       -0.0238
     26 C         140.9737  140.2259  166.4350 C.ar    1  UNL1        0.0015
     27 C         142.0864  139.2432  166.2203 C.ar    1  UNL1       -0.0020
     28 C         143.3557  139.6816  165.5521 C.ar    1  UNL1        0.0060
     29 C         143.5123  141.1027  165.0985 C.ar    1  UNL1        0.0748
     30 C         142.3996  142.0855  165.3131 C.ar    1  UNL1        0.0233
     31 C         142.8387  143.4102  164.7634 C.3     1  UNL1        0.2352
     32 O         144.2228  143.2462  164.2090 O.3     1  UNL1       -0.4404
     33 C         144.6391  141.8201  164.4161 C.2     1  UNL1        0.3413
     34 O         145.9517  141.2172  164.0118 O.2     1  UNL1       -0.2449
@<TRIPOS>BOND
     1    24    25    1
     2    25    26   ar
     3    26    21    1
     4    21    22    1
     5    21    20    1
     6    20     1    1
     7     1     2    1
     8     2     3    1
     9     3     4    1
    10     4     5    1
    11     5     6    1
    12     4     7    1
    13     7     8    1
    14     8     9    2
    15     8    10   am
    16    10    12    1
    17    12    13   ar
    18    13    14   ar
    19    14    15   ar
    20    15    16    2
    21    15    17   ar
    22    17    18    1
    23    17    19   ar
    24    10    11    1
    25    26    27   ar
    26    27    28   ar
    27    28    29   ar
    28    29    30   ar
    29    30    31    1
    30    31    32    1
    31    32    33    1
    32    33    34    2
    33    30    25   ar
    34     6     1    1
    35    19    12   ar
    36    33    29    1
    37    11     4    1
    38    22    23    1
@<TRIPOS>MOLECULE
*****
 34 38 0 0 0
SMALL
GASTEIGER

@<TRIPOS>ATOM
      1 N         142.1202  137.9624  161.9110 N.3     1  UNL1       -0.2704
      2 C         142.8052  138.7073  163.0181 C.3     1  UNL1        0.0722
      3 C         142.0472  139.0664  164.2616 C.3     1  UNL1        0.0195
      4 C         140.6041  138.6806  164.3980 C.3     1  UNL1        0.0300
      5 C         139.9190  137.9357  163.2910 C.3     1  UNL1        0.0195
      6 C         140.6771  137.5765  162.0474 C.3     1  UNL1        0.0722
      7 C         139.1645  138.3635  164.6756 C.3     1  UNL1        0.0874
      8 C         138.8232  138.9069  166.0315 C.2     1  UNL1        0.2305
      9 O         137.4878  138.8137  166.7082 O.2     1  UNL1       -0.2745
     10 N         140.0520  139.5597  166.5920 N.am    1  UNL1       -0.2425
     11 C         141.1526  139.4199  165.5825 C.3     1  UNL1        0.1001
     12 C         140.1609  140.2340  167.9274 C.ar    1  UNL1        0.1574
     13 C         139.1125  139.9990  168.9740 C.ar    1  UNL1        0.0414
     14 C         139.2214  140.6733  170.3094 C.ar    1  UNL1        0.0651
     15 C         140.3789  141.5826  170.5983 C.ar    1  UNL1        0.2766
     16 O         140.4879  142.2569  171.9338 O.2     1  UNL1       -0.2655
     17 N         141.4275  141.8176  169.5517 N.ar    1  UNL1       -0.2134
     18 C         142.5849  142.7269  169.8405 C.3     1  UNL1        0.1571
     19 N         141.3184  141.1433  168.2162 N.ar    1  UNL1       -0.1513
     20 C         142.8782  137.6032  160.6674 C.3     1  UNL1        0.1063
     21 C         142.7887  138.4813  159.4546 C.3     1  UNL1        0.1483
     22 O         143.1183  137.9261  158.1007 O.3     1  UNL1       -0.3786
     23 H         143.0104  138.6201  157.4316 H       1  UNL1        0.2108
     24 C         139.9452  139.2727  158.9179 C.3     1  UNL1        0.0306
     25 C         140.9480  140.3104  159.3274 C.ar    1  UNL1       -0.0238
     26 C         142.3697  139.9147  159.5957 C.ar    1  UNL1        0.0015
     27 C         143.3725  140.9524  160.0052 C.ar    1  UNL1       -0.0020
     28 C         142.9535  142.3857  160.1463 C.ar    1  UNL1        0.0060
     29 C         141.5318  142.7814  159.8780 C.ar    1  UNL1        0.0748
     30 C         140.5290  141.7437  159.4685 C.ar    1  UNL1        0.0233
     31 C         139.2084  142.4274  159.2721 C.3     1  UNL1        0.2352
     32 O         139.3949  143.8876  159.5601 O.3     1  UNL1       -0.4404
     33 C         140.8309  144.1064  159.9346 C.2     1  UNL1        0.3413
     34 O         141.4562  145.4196  160.3014 O.2     1  UNL1       -0.2449
@<TRIPOS>BOND
     1    24    25    1
     2    25    26   ar
     3    26    21    1
     4    21    22    1
     5    21    20    1
     6    20     1    1
     7     1     2    1
     8     2     3    1
     9     3     4    1
    10     4     5    1
    11     5     6    1
    12     4     7    1
    13     7     8    1
    14     8     9    2
    15     8    10   am
    16    10    12    1
    17    12    13   ar
    18    13    14   ar
    19    14    15   ar
    20    15    16    2
    21    15    17   ar
    22    17    18    1
    23    17    19   ar
    24    10    11    1
    25    26    27   ar
    26    27    28   ar
    27    28    29   ar
    28    29    30   ar
    29    30    31    1
    30    31    32    1
    31    32    33    1
    32    33    34    2
    33    30    25   ar
    34     6     1    1
    35    19    12   ar
    36    33    29    1
    37    11     4    1
    38    22    23    1
@<TRIPOS>MOLECULE
*****
 34 38 0 0 0
SMALL
GASTEIGER

@<TRIPOS>ATOM
      1 N         142.7875  139.1504  164.5442 N.3     1  UNL1       -0.2704
      2 C         142.1123  138.0396  163.7959 C.3     1  UNL1        0.0722
      3 C         142.2696  137.9336  162.3080 C.3     1  UNL1        0.0195
      4 C         143.1021  138.9385  161.5683 C.3     1  UNL1        0.0300
      5 C         143.7774  140.0494  162.3166 C.3     1  UNL1        0.0195
      6 C         143.6201  140.1553  163.8045 C.3     1  UNL1        0.0722
      7 C         143.8988  139.8645  160.6978 C.3     1  UNL1        0.0874
      8 C         143.7794  139.3862  159.2810 C.2     1  UNL1        0.2305
      9 O         144.4183  140.0184  158.0802 O.2     1  UNL1       -0.2745
     10 N         142.9089  138.1646  159.2760 N.am    1  UNL1       -0.2425
     11 C         142.4903  137.8879  160.6896 C.3     1  UNL1        0.1001
     12 C         142.5245  137.3608  158.0694 C.ar    1  UNL1        0.1574
     13 C         141.3484  137.7752  157.2357 C.ar    1  UNL1        0.0414
     14 C         140.9639  136.9715  156.0290 C.ar    1  UNL1        0.0651
     15 C         141.7556  135.7533  155.6559 C.ar    1  UNL1        0.2766
     16 O         141.3712  134.9495  154.4492 O.2     1  UNL1       -0.2655
     17 N         142.9318  135.3388  156.4896 N.ar    1  UNL1       -0.2134
     18 C         143.7235  134.1206  156.1165 C.3     1  UNL1        0.1571
     19 N         143.3162  136.1426  157.6963 N.ar    1  UNL1       -0.1513
     20 C         142.6302  139.2565  166.0322 C.3     1  UNL1        0.1063
     21 C         141.4751  140.0177  166.6119 C.3     1  UNL1        0.1483
     22 O         141.1465  139.8868  168.0696 O.3     1  UNL1       -0.3786
     23 H         140.3781  140.4406  168.2788 H       1  UNL1        0.2108
     24 C         139.0281  138.9368  165.2540 C.3     1  UNL1        0.0306
     25 C         139.4251  140.3696  165.0550 C.ar    1  UNL1       -0.0238
     26 C         140.6486  140.9100  165.7340 C.ar    1  UNL1        0.0015
     27 C         141.0456  142.3428  165.5350 C.ar    1  UNL1       -0.0020
     28 C         140.2192  143.2351  164.6571 C.ar    1  UNL1        0.0060
     29 C         138.9957  142.6946  163.9782 C.ar    1  UNL1        0.0748
     30 C         138.5987  141.2618  164.1771 C.ar    1  UNL1        0.0233
     31 C         137.3504  141.0123  163.3837 C.3     1  UNL1        0.2352
     32 O         136.9759  142.2908  162.6944 O.3     1  UNL1       -0.4404
     33 C         137.9927  143.3305  163.0618 C.2     1  UNL1        0.3413
     34 O         138.0046  144.7559  162.5948 O.2     1  UNL1       -0.2449
@<TRIPOS>BOND
     1    24    25    1
     2    25    26   ar
     3    26    21    1
     4    21    22    1
     5    21    20    1
     6    20     1    1
     7     1     2    1
     8     2     3    1
     9     3     4    1
    10     4     5    1
    11     5     6    1
    12     4     7    1
    13     7     8    1
    14     8     9    2
    15     8    10   am
    16    10    12    1
    17    12    13   ar
    18    13    14   ar
    19    14    15   ar
    20    15    16    2
    21    15    17   ar
    22    17    18    1
    23    17    19   ar
    24    10    11    1
    25    26    27   ar
    26    27    28   ar
    27    28    29   ar
    28    29    30   ar
    29    30    31    1
    30    31    32    1
    31    32    33    1
    32    33    34    2
    33    30    25   ar
    34     6     1    1
    35    19    12   ar
    36    33    29    1
    37    11     4    1
    38    22    23    1
@<TRIPOS>MOLECULE
*****
 34 38 0 0 0
SMALL
GASTEIGER

@<TRIPOS>ATOM
      1 N         139.8446  138.4424  161.6718 N.3     1  UNL1       -0.2704
      2 C         139.1016  139.2790  162.6707 C.3     1  UNL1        0.0722
      3 C         139.6762  139.5009  164.0384 C.3     1  UNL1        0.0195
      4 C         140.9938  138.8861  164.4071 C.3     1  UNL1        0.0300
      5 C         141.7368  138.0495  163.4082 C.3     1  UNL1        0.0195
      6 C         141.1622  137.8276  162.0405 C.3     1  UNL1        0.0722
      7 C         142.2940  138.3386  164.9167 C.3     1  UNL1        0.0874
      8 C         142.4729  138.8086  166.3299 C.2     1  UNL1        0.2305
      9 O         143.6370  138.4955  167.2225 O.2     1  UNL1       -0.2745
     10 N         141.2832  139.6466  166.6938 N.am    1  UNL1       -0.2425
     11 C         140.3691  139.6945  165.5055 C.3     1  UNL1        0.1001
     12 C         141.0487  140.3186  168.0141 C.ar    1  UNL1        0.1574
     13 C         139.7934  140.0386  168.7858 C.ar    1  UNL1        0.0414
     14 C         139.5589  140.7106  170.1062 C.ar    1  UNL1        0.0651
     15 C         140.5799  141.6628  170.6548 C.ar    1  UNL1        0.2766
     16 O         140.3455  142.3349  171.9752 O.2     1  UNL1       -0.2655
     17 N         141.8353  141.9429  169.8831 N.ar    1  UNL1       -0.2134
     18 C         142.8563  142.8951  170.4318 C.3     1  UNL1        0.1571
     19 N         142.0697  141.2708  168.5627 N.ar    1  UNL1       -0.1513
     20 C         139.2700  138.2205  160.3040 C.3     1  UNL1        0.1063
     21 C         139.3634  139.3002  159.2670 C.3     1  UNL1        0.1483
     22 O         138.1137  139.8901  158.6838 O.3     1  UNL1       -0.3786
     23 H         138.3500  140.5698  158.0333 H       1  UNL1        0.2108
     24 C         140.5203  141.8075  160.4398 C.3     1  UNL1        0.0306
     25 C         141.2851  141.0437  159.3997 C.ar    1  UNL1       -0.0238
     26 C         140.7067  139.7902  158.8133 C.ar    1  UNL1        0.0015
     27 C         141.4714  139.0264  157.7732 C.ar    1  UNL1       -0.0020
     28 C         142.8146  139.5163  157.3194 C.ar    1  UNL1        0.0060
     29 C         143.3930  140.7699  157.9058 C.ar    1  UNL1        0.0748
     30 C         142.6282  141.5336  158.9459 C.ar    1  UNL1        0.0233
     31 C         143.4471  142.7270  159.3402 C.3     1  UNL1        0.2352
     32 O         144.7179  142.7008  158.5437 O.3     1  UNL1       -0.4404
     33 C         144.6844  141.4912  157.6572 C.2     1  UNL1        0.3413
     34 O         145.7546  141.0759  156.6916 O.2     1  UNL1       -0.2449
@<TRIPOS>BOND
     1    24    25    1
     2    25    26   ar
     3    26    21    1
     4    21    22    1
     5    21    20    1
     6    20     1    1
     7     1     2    1
     8     2     3    1
     9     3     4    1
    10     4     5    1
    11     5     6    1
    12     4     7    1
    13     7     8    1
    14     8     9    2
    15     8    10   am
    16    10    12    1
    17    12    13   ar
    18    13    14   ar
    19    14    15   ar
    20    15    16    2
    21    15    17   ar
    22    17    18    1
    23    17    19   ar
    24    10    11    1
    25    26    27   ar
    26    27    28   ar
    27    28    29   ar
    28    29    30   ar
    29    30    31    1
    30    31    32    1
    31    32    33    1
    32    33    34    2
    33    30    25   ar
    34     6     1    1
    35    19    12   ar
    36    33    29    1
    37    11     4    1
    38    22    23    1
@<TRIPOS>MOLECULE
*****
 34 38 0 0 0
SMALL
GASTEIGER

@<TRIPOS>ATOM
      1 N         144.4230  142.0644  161.8084 N.3     1  UNL1       -0.2704
      2 C         143.7725  142.9516  162.8280 C.3     1  UNL1        0.0722
      3 C         143.4333  142.4109  164.1853 C.3     1  UNL1        0.0195
      4 C         143.7445  140.9829  164.5231 C.3     1  UNL1        0.0300
      5 C         144.3950  140.0957  163.5034 C.3     1  UNL1        0.0195
      6 C         144.7343  140.6365  162.1461 C.3     1  UNL1        0.0722
      7 C         143.9943  139.5837  165.0024 C.3     1  UNL1        0.0874
      8 C         143.5001  139.4824  166.4151 C.2     1  UNL1        0.2305
      9 O         143.5520  138.2593  167.2818 O.2     1  UNL1       -0.2745
     10 N         142.9448  140.8191  166.8088 N.am    1  UNL1       -0.2425
     11 C         143.0959  141.7465  165.6395 C.3     1  UNL1        0.1001
     12 C         142.3440  141.1673  168.1383 C.ar    1  UNL1        0.1574
     13 C         143.1043  142.0288  169.1024 C.ar    1  UNL1        0.0414
     14 C         142.5035  142.3770  170.4320 C.ar    1  UNL1        0.0651
     15 C         141.1422  141.8637  170.7974 C.ar    1  UNL1        0.2766
     16 O         140.5413  142.2119  172.1270 O.2     1  UNL1       -0.2655
     17 N         140.3818  141.0022  169.8332 N.ar    1  UNL1       -0.2134
     18 C         139.0205  140.4889  170.1986 C.3     1  UNL1        0.1571
     19 N         140.9827  140.6540  168.5037 N.ar    1  UNL1       -0.1513
     20 C         144.7623  142.6052  160.4509 C.3     1  UNL1        0.1063
     21 C         143.6956  142.7251  159.4033 C.3     1  UNL1        0.1483
     22 O         144.0040  143.3822  158.0906 O.3     1  UNL1       -0.3786
     23 H         143.2109  143.3770  157.5322 H       1  UNL1        0.2108
     24 C         141.5825  144.5150  160.5570 C.3     1  UNL1        0.0306
     25 C         141.2638  143.0828  160.2451 C.ar    1  UNL1       -0.0238
     26 C         142.3203  142.1878  159.6682 C.ar    1  UNL1        0.0015
     27 C         142.0017  140.7557  159.3563 C.ar    1  UNL1       -0.0020
     28 C         140.6265  140.2184  159.6212 C.ar    1  UNL1        0.0060
     29 C         139.5700  141.1133  160.1981 C.ar    1  UNL1        0.0748
     30 C         139.8887  142.5455  160.5100 C.ar    1  UNL1        0.0233
     31 C         138.6518  143.1845  161.0687 C.3     1  UNL1        0.2352
     32 O         137.5688  142.1472  161.1020 O.3     1  UNL1       -0.4404
     33 C         138.1363  140.8672  160.5639 C.2     1  UNL1        0.3413
     34 O         137.3994  139.5689  160.4175 O.2     1  UNL1       -0.2449
@<TRIPOS>BOND
     1    24    25    1
     2    25    26   ar
     3    26    21    1
     4    21    22    1
     5    21    20    1
     6    20     1    1
     7     1     2    1
     8     2     3    1
     9     3     4    1
    10     4     5    1
    11     5     6    1
    12     4     7    1
    13     7     8    1
    14     8     9    2
    15     8    10   am
    16    10    12    1
    17    12    13   ar
    18    13    14   ar
    19    14    15   ar
    20    15    16    2
    21    15    17   ar
    22    17    18    1
    23    17    19   ar
    24    10    11    1
    25    26    27   ar
    26    27    28   ar
    27    28    29   ar
    28    29    30   ar
    29    30    31    1
    30    31    32    1
    31    32    33    1
    32    33    34    2
    33    30    25   ar
    34     6     1    1
    35    19    12   ar
    36    33    29    1
    37    11     4    1
    38    22    23    1
@<TRIPOS>MOLECULE
*****
 34 38 0 0 0
SMALL
GASTEIGER

@<TRIPOS>ATOM
      1 N         144.9081  141.7589  162.8270 N.3     1  UNL1       -0.2704
      2 C         144.4656  140.3419  162.6124 C.3     1  UNL1        0.0722
      3 C         143.9732  139.9060  161.2643 C.3     1  UNL1        0.0195
      4 C         143.9233  140.8871  160.1307 C.3     1  UNL1        0.0300
      5 C         144.3659  142.3041  160.3453 C.3     1  UNL1        0.0195
      6 C         144.8583  142.7400  161.6934 C.3     1  UNL1        0.0722
      7 C         143.8173  141.7510  158.9091 C.3     1  UNL1        0.0874
      8 C         143.2789  140.9085  157.7908 C.2     1  UNL1        0.2305
      9 O         143.0138  141.3697  156.3883 O.2     1  UNL1       -0.2745
     10 N         143.0522  139.5239  158.3214 N.am    1  UNL1       -0.2425
     11 C         143.4504  139.5106  159.7675 C.3     1  UNL1        0.1001
     12 C         142.5205  138.3574  157.5426 C.ar    1  UNL1        0.1574
     13 C         141.1919  138.4584  156.8539 C.ar    1  UNL1        0.0414
     14 C         140.6602  137.2918  156.0751 C.ar    1  UNL1        0.0651
     15 C         141.4572  136.0243  155.9850 C.ar    1  UNL1        0.2766
     16 O         140.9256  134.8577  155.2062 O.2     1  UNL1       -0.2655
     17 N         142.7860  135.9233  156.6737 N.ar    1  UNL1       -0.2134
     18 C         143.5831  134.6558  156.5837 C.3     1  UNL1        0.1571
     19 N         143.3176  137.0899  157.4525 N.ar    1  UNL1       -0.1513
     20 C         145.4006  142.1949  164.1752 C.3     1  UNL1        0.1063
     21 C         144.5583  143.0999  165.0246 C.3     1  UNL1        0.1483
     22 O         145.2077  144.0013  166.0324 O.3     1  UNL1       -0.3786
     23 H         144.5261  144.5154  166.4930 H       1  UNL1        0.2108
     24 C         143.2173  145.3057  163.4962 C.3     1  UNL1        0.0306
     25 C         142.3962  144.2063  164.1021 C.ar    1  UNL1       -0.0238
     26 C         143.0667  143.1034  164.8663 C.ar    1  UNL1        0.0015
     27 C         142.2455  142.0040  165.4721 C.ar    1  UNL1       -0.0020
     28 C         140.7540  142.0075  165.3138 C.ar    1  UNL1        0.0060
     29 C         140.0835  143.1104  164.5497 C.ar    1  UNL1        0.0748
     30 C         140.9046  144.2098  163.9438 C.ar    1  UNL1        0.0233
     31 C         139.9711  145.1571  163.2501 C.3     1  UNL1        0.2352
     32 O         138.5731  144.6431  163.4271 O.3     1  UNL1       -0.4404
     33 C         138.6425  143.3782  164.2304 C.2     1  UNL1        0.3413
     34 O         137.4759  142.5300  164.6420 O.2     1  UNL1       -0.2449
@<TRIPOS>BOND
     1    24    25    1
     2    25    26   ar
     3    26    21    1
     4    21    22    1
     5    21    20    1
     6    20     1    1
     7     1     2    1
     8     2     3    1
     9     3     4    1
    10     4     5    1
    11     5     6    1
    12     4     7    1
    13     7     8    1
    14     8     9    2
    15     8    10   am
    16    10    12    1
    17    12    13   ar
    18    13    14   ar
    19    14    15   ar
    20    15    16    2
    21    15    17   ar
    22    17    18    1
    23    17    19   ar
    24    10    11    1
    25    26    27   ar
    26    27    28   ar
    27    28    29   ar
    28    29    30   ar
    29    30    31    1
    30    31    32    1
    31    32    33    1
    32    33    34    2
    33    30    25   ar
    34     6     1    1
    35    19    12   ar
    36    33    29    1
    37    11     4    1
    38    22    23    1
