@<TRIPOS>MOLECULE
*****
 30 33 0 0 0
SMALL
GASTEIGER

@<TRIPOS>ATOM
      1 C         141.3540  140.8366  162.7029 C.2     1  UNL1        0.0099
      2 C         142.2941  141.2688  161.6169 C.2     1  UNL1       -0.0400
      3 C         143.5485  142.0147  161.9636 C.3     1  UNL1        0.0394
      4 C         144.4886  142.4469  160.8776 C.3     1  UNL1        0.0768
      5 N         144.1744  142.1331  159.4448 N.3     1  UNL1       -0.2671
      6 C         142.9201  141.3872  159.0981 C.3     1  UNL1        0.0768
      7 C         141.9799  140.9550  160.1841 C.3     1  UNL1        0.0394
      8 C         142.2966  141.7778  167.0012 C.ar    1  UNL1        0.0536
      9 C         142.7860  140.4990  166.3887 C.ar    1  UNL1        0.0045
     10 C         142.4718  140.1853  164.9559 C.ar    1  UNL1        0.0002
     11 C         141.6682  141.1503  164.1356 C.ar    1  UNL1        0.0008
     12 C         141.1789  142.4291  164.7481 C.ar    1  UNL1        0.0002
     13 C         141.4931  142.7429  166.1809 C.ar    1  UNL1        0.0045
     14 C         141.9473  142.0444  170.9454 C.3     1  UNL1        0.1152
     15 N         141.6331  141.7306  169.5126 N.am    1  UNL1       -0.2726
     16 C         140.3410  141.0559  169.1585 C.3     1  UNL1        0.1152
     17 C         142.6109  142.0916  168.4339 C.2     1  UNL1        0.2491
     18 O         143.9029  142.7663  168.7880 O.2     1  UNL1       -0.2699
     19 C         140.0997  140.0907  162.3561 C.ar    1  UNL1        0.0807
     20 C         140.0279  138.6068  162.5633 C.ar    1  UNL1        0.0191
     21 C         138.7735  137.8609  162.2165 C.ar    1  UNL1        0.0031
     22 C         137.5910  138.5989  161.6625 C.ar    1  UNL1        0.0207
     23 C         137.6628  140.0828  161.4552 C.ar    1  UNL1        0.0988
     24 N         138.9171  140.8287  161.8020 N.ar    1  UNL1       -0.2439
     25 C         145.1145  142.5653  158.3588 C.3     1  UNL1        0.1192
     26 C         145.1167  141.8503  157.0402 C.ar    1  UNL1        0.0823
     27 C         144.8832  142.4766  155.6974 C.ar    1  UNL1        0.0530
     28 S         144.9749  141.3969  154.6601 S.2     1  UNL1       -0.0643
     29 C         145.2650  140.1033  155.3620 C.ar    1  UNL1        0.1341
     30 N         145.3527  140.3836  156.8329 N.ar    1  UNL1       -0.2392
@<TRIPOS>BOND
     1    14    15    1
     2    15    16    1
     3    15    17   am
     4    17    18    2
     5    17     8    1
     6     8     9   ar
     7     9    10   ar
     8    10    11   ar
     9    11     1    1
    10     1     2    2
    11     2     3    1
    12     3     4    1
    13     4     5    1
    14     5    25    1
    15    25    26    1
    16    26    27   ar
    17    27    28   ar
    18    28    29   ar
    19    29    30   ar
    20     5     6    1
    21     6     7    1
    22     1    19    1
    23    19    20   ar
    24    20    21   ar
    25    21    22   ar
    26    22    23   ar
    27    23    24   ar
    28    11    12   ar
    29    12    13   ar
    30    13     8   ar
    31     7     2    1
    32    24    19   ar
    33    30    26   ar
@<TRIPOS>MOLECULE
*****
 30 33 0 0 0
SMALL
GASTEIGER

@<TRIPOS>ATOM
      1 C         141.3301  141.6330  162.5423 C.2     1  UNL1        0.0099
      2 C         141.9835  141.3169  161.2297 C.2     1  UNL1       -0.0400
      3 C         143.0734  140.2883  161.1629 C.3     1  UNL1        0.0394
      4 C         143.7269  139.9722  159.8503 C.3     1  UNL1        0.0768
      5 N         143.2905  140.6845  158.6044 N.3     1  UNL1       -0.2671
      6 C         142.2007  141.7129  158.6712 C.3     1  UNL1        0.0768
      7 C         141.5472  142.0292  159.9838 C.3     1  UNL1        0.0394
      8 C         142.6392  139.4962  166.2800 C.ar    1  UNL1        0.0536
      9 C         143.2648  140.8076  165.9076 C.ar    1  UNL1        0.0045
     10 C         142.8284  141.5199  164.6617 C.ar    1  UNL1        0.0002
     11 C         141.7664  140.9208  163.7882 C.ar    1  UNL1        0.0008
     12 C         141.1408  139.6093  164.1605 C.ar    1  UNL1        0.0002
     13 C         141.5772  138.8970  165.4064 C.ar    1  UNL1        0.0045
     14 C         142.8923  138.4220  170.0920 C.3     1  UNL1        0.1152
     15 N         142.4559  139.1342  168.8462 N.am    1  UNL1       -0.2726
     16 C         141.3998  140.1970  168.9206 C.3     1  UNL1        0.1152
     17 C         143.0755  138.7839  167.5259 C.2     1  UNL1        0.2491
     18 O         144.1315  137.7212  167.4514 O.2     1  UNL1       -0.2699
     19 C         140.2403  142.6615  162.6090 C.ar    1  UNL1        0.0807
     20 C         138.8031  142.2367  162.5448 C.ar    1  UNL1        0.0191
     21 C         137.7133  143.2653  162.6115 C.ar    1  UNL1        0.0031
     22 C         138.0606  144.7186  162.7425 C.ar    1  UNL1        0.0207
     23 C         139.4978  145.1434  162.8067 C.ar    1  UNL1        0.0988
     24 N         140.5876  144.1149  162.7400 N.ar    1  UNL1       -0.2439
     25 C         143.9440  140.3682  157.2918 C.3     1  UNL1        0.1192
     26 C         145.1788  141.1087  156.8711 C.ar    1  UNL1        0.0823
     27 C         145.9926  140.8383  155.6404 C.ar    1  UNL1        0.0530
     28 S         147.1333  141.8120  155.6159 S.2     1  UNL1       -0.0643
     29 C         147.0246  142.6842  156.8315 C.ar    1  UNL1        0.1341
     30 N         145.8166  142.2494  157.6072 N.ar    1  UNL1       -0.2392
@<TRIPOS>BOND
     1    14    15    1
     2    15    16    1
     3    15    17   am
     4    17    18    2
     5    17     8    1
     6     8     9   ar
     7     9    10   ar
     8    10    11   ar
     9    11     1    1
    10     1     2    2
    11     2     3    1
    12     3     4    1
    13     4     5    1
    14     5    25    1
    15    25    26    1
    16    26    27   ar
    17    27    28   ar
    18    28    29   ar
    19    29    30   ar
    20     5     6    1
    21     6     7    1
    22     1    19    1
    23    19    20   ar
    24    20    21   ar
    25    21    22   ar
    26    22    23   ar
    27    23    24   ar
    28    11    12   ar
    29    12    13   ar
    30    13     8   ar
    31     7     2    1
    32    24    19   ar
    33    30    26   ar
@<TRIPOS>MOLECULE
*****
 30 33 0 0 0
SMALL
GASTEIGER

@<TRIPOS>ATOM
      1 C         141.7049  141.5134  162.8131 C.2     1  UNL1        0.0099
      2 C         141.3686  142.6021  161.8377 C.2     1  UNL1       -0.0400
      3 C         140.7861  143.8946  162.3278 C.3     1  UNL1        0.0394
      4 C         140.4498  144.9834  161.3524 C.3     1  UNL1        0.0768
      5 N         140.6959  144.7797  159.8868 N.3     1  UNL1       -0.2671
      6 C         141.2784  143.4872  159.3967 C.3     1  UNL1        0.0768
      7 C         141.6147  142.3984  160.3721 C.3     1  UNL1        0.0394
      8 C         140.9663  142.1245  167.2098 C.ar    1  UNL1        0.0536
      9 C         142.3045  142.4590  166.6205 C.ar    1  UNL1        0.0045
     10 C         142.5507  142.2553  165.1549 C.ar    1  UNL1        0.0002
     11 C         141.4587  141.7171  164.2787 C.ar    1  UNL1        0.0008
     12 C         140.1205  141.3825  164.8680 C.ar    1  UNL1        0.0002
     13 C         139.8744  141.5862  166.3336 C.ar    1  UNL1        0.0045
     14 C         140.7736  141.4288  171.1122 C.3     1  UNL1        0.1152
     15 N         141.0197  141.2251  169.6467 N.am    1  UNL1       -0.2726
     16 C         141.5655  139.9182  169.1524 C.3     1  UNL1        0.1152
     17 C         140.7202  142.3282  168.6754 C.2     1  UNL1        0.2491
     18 O         140.1744  143.6350  169.1697 O.2     1  UNL1       -0.2699
     19 C         142.2873  140.2209  162.3230 C.ar    1  UNL1        0.0807
     20 C         141.3994  139.0307  162.1110 C.ar    1  UNL1        0.0191
     21 C         141.9819  137.7382  161.6208 C.ar    1  UNL1        0.0031
     22 C         143.4523  137.6360  161.3427 C.ar    1  UNL1        0.0207
     23 C         144.3403  138.8262  161.5547 C.ar    1  UNL1        0.0988
     24 N         143.7578  140.1187  162.0448 N.ar    1  UNL1       -0.2439
     25 C         140.3596  145.8685  158.9114 C.3     1  UNL1        0.1192
     26 C         140.6051  145.6645  157.4457 C.ar    1  UNL1        0.0823
     27 C         139.5930  145.2074  156.4375 C.ar    1  UNL1        0.0530
     28 S         140.2681  145.1423  155.0996 S.2     1  UNL1       -0.0643
     29 C         141.6976  145.5592  155.2810 C.ar    1  UNL1        0.1341
     30 N         141.9058  145.8820  156.7310 N.ar    1  UNL1       -0.2392
@<TRIPOS>BOND
     1    14    15    1
     2    15    16    1
     3    15    17   am
     4    17    18    2
     5    17     8    1
     6     8     9   ar
     7     9    10   ar
     8    10    11   ar
     9    11     1    1
    10     1     2    2
    11     2     3    1
    12     3     4    1
    13     4     5    1
    14     5    25    1
    15    25    26    1
    16    26    27   ar
    17    27    28   ar
    18    28    29   ar
    19    29    30   ar
    20     5     6    1
    21     6     7    1
    22     1    19    1
    23    19    20   ar
    24    20    21   ar
    25    21    22   ar
    26    22    23   ar
    27    23    24   ar
    28    11    12   ar
    29    12    13   ar
    30    13     8   ar
    31     7     2    1
    32    24    19   ar
    33    30    26   ar
@<TRIPOS>MOLECULE
*****
 30 33 0 0 0
SMALL
GASTEIGER

@<TRIPOS>ATOM
      1 C         139.3906  145.5501  156.1392 C.2     1  UNL1        0.0099
      2 C         138.3972  144.5230  155.6829 C.2     1  UNL1       -0.0400
      3 C         137.5234  144.8003  154.4955 C.3     1  UNL1        0.0394
      4 C         136.5300  143.7732  154.0392 C.3     1  UNL1        0.0768
      5 N         136.4103  142.4688  154.7702 N.3     1  UNL1       -0.2671
      6 C         137.2840  142.1916  155.9575 C.3     1  UNL1        0.0768
      7 C         138.2775  143.2187  156.4138 C.3     1  UNL1        0.0394
      8 C         139.7496  149.4631  153.9462 C.ar    1  UNL1        0.0536
      9 C         138.9091  149.3721  155.1852 C.ar    1  UNL1        0.0045
     10 C         138.7894  148.0678  155.9162 C.ar    1  UNL1        0.0002
     11 C         139.5102  146.8544  155.4082 C.ar    1  UNL1        0.0008
     12 C         140.3508  146.9454  154.1692 C.ar    1  UNL1        0.0002
     13 C         140.4705  148.2498  153.4382 C.ar    1  UNL1        0.0045
     14 C         141.0930  153.0267  152.8297 C.3     1  UNL1        0.1152
     15 N         140.9733  151.7223  153.5607 N.am    1  UNL1       -0.2726
     16 C         141.9577  151.3728  154.6373 C.3     1  UNL1        0.1152
     17 C         139.8693  150.7675  153.2152 C.2     1  UNL1        0.2491
     18 O         138.8850  151.1170  152.1387 O.2     1  UNL1       -0.2699
     19 C         140.2642  145.2728  157.3265 C.ar    1  UNL1        0.0807
     20 C         141.5886  144.5935  157.1408 C.ar    1  UNL1        0.0191
     21 C         142.4624  144.3162  158.3282 C.ar    1  UNL1        0.0031
     22 C         142.0116  144.7182  159.7012 C.ar    1  UNL1        0.0207
     23 C         140.6872  145.3976  159.8869 C.ar    1  UNL1        0.0988
     24 N         139.8136  145.6748  158.6996 N.ar    1  UNL1       -0.2439
     25 C         135.4169  141.4417  154.3138 C.3     1  UNL1        0.1192
     26 C         134.4090  140.8923  155.2793 C.ar    1  UNL1        0.0823
     27 C         132.9370  141.1808  155.2766 C.ar    1  UNL1        0.0530
     28 S         132.3144  140.4247  156.4126 S.2     1  UNL1       -0.0643
     29 C         133.4015  139.6688  157.1174 C.ar    1  UNL1        0.1341
     30 N         134.6961  139.9578  156.4170 N.ar    1  UNL1       -0.2392
@<TRIPOS>BOND
     1    14    15    1
     2    15    16    1
     3    15    17   am
     4    17    18    2
     5    17     8    1
     6     8     9   ar
     7     9    10   ar
     8    10    11   ar
     9    11     1    1
    10     1     2    2
    11     2     3    1
    12     3     4    1
    13     4     5    1
    14     5    25    1
    15    25    26    1
    16    26    27   ar
    17    27    28   ar
    18    28    29   ar
    19    29    30   ar
    20     5     6    1
    21     6     7    1
    22     1    19    1
    23    19    20   ar
    24    20    21   ar
    25    21    22   ar
    26    22    23   ar
    27    23    24   ar
    28    11    12   ar
    29    12    13   ar
    30    13     8   ar
    31     7     2    1
    32    24    19   ar
    33    30    26   ar
@<TRIPOS>MOLECULE
*****
 30 33 0 0 0
SMALL
GASTEIGER

@<TRIPOS>ATOM
      1 C         141.1646  141.8251  163.4078 C.2     1  UNL1        0.0099
      2 C         141.5570  140.7936  162.3919 C.2     1  UNL1       -0.0400
      3 C         142.1829  139.5045  162.8352 C.3     1  UNL1        0.0394
      4 C         142.5753  138.4730  161.8193 C.3     1  UNL1        0.0768
      5 N         142.3419  138.7306  160.3602 N.3     1  UNL1       -0.2671
      6 C         141.7161  140.0197  159.9169 C.3     1  UNL1        0.0768
      7 C         141.3236  141.0513  160.9327 C.3     1  UNL1        0.0394
      8 C         141.8648  141.0523  167.7853 C.ar    1  UNL1        0.0536
      9 C         142.8441  141.8763  167.0031 C.ar    1  UNL1        0.0045
     10 C         142.6107  142.1339  165.5439 C.ar    1  UNL1        0.0002
     11 C         141.3980  141.5675  164.8669 C.ar    1  UNL1        0.0008
     12 C         140.4186  140.7435  165.6491 C.ar    1  UNL1        0.0002
     13 C         140.6520  140.4859  167.1083 C.ar    1  UNL1        0.0045
     14 C         141.6037  141.3482  171.7342 C.3     1  UNL1        0.1152
     15 N         141.3703  141.6058  170.2750 N.am    1  UNL1       -0.2726
     16 C         140.4090  142.6746  169.8465 C.3     1  UNL1        0.1152
     17 C         142.0982  140.7947  169.2444 C.2     1  UNL1        0.2491
     18 O         143.0594  139.7259  169.6730 O.2     1  UNL1       -0.2699
     19 C         140.5388  143.1142  162.9645 C.ar    1  UNL1        0.0807
     20 C         139.0700  143.3430  163.1656 C.ar    1  UNL1        0.0191
     21 C         138.4442  144.6322  162.7222 C.ar    1  UNL1        0.0031
     22 C         139.2871  145.6925  162.0778 C.ar    1  UNL1        0.0207
     23 C         140.7559  145.4636  161.8767 C.ar    1  UNL1        0.0988
     24 N         141.3817  144.1745  162.3200 N.ar    1  UNL1       -0.2439
     25 C         142.7344  137.6991  159.3443 C.3     1  UNL1        0.1192
     26 C         142.6285  138.0096  157.8806 C.ar    1  UNL1        0.0823
     27 C         141.5109  137.5951  156.9700 C.ar    1  UNL1        0.0530
     28 S         141.8132  138.1184  155.5972 S.2     1  UNL1       -0.0643
     29 C         143.1177  138.8564  155.6593 C.ar    1  UNL1        0.1341
     30 N         143.6215  138.7891  157.0706 N.ar    1  UNL1       -0.2392
@<TRIPOS>BOND
     1    14    15    1
     2    15    16    1
     3    15    17   am
     4    17    18    2
     5    17     8    1
     6     8     9   ar
     7     9    10   ar
     8    10    11   ar
     9    11     1    1
    10     1     2    2
    11     2     3    1
    12     3     4    1
    13     4     5    1
    14     5    25    1
    15    25    26    1
    16    26    27   ar
    17    27    28   ar
    18    28    29   ar
    19    29    30   ar
    20     5     6    1
    21     6     7    1
    22     1    19    1
    23    19    20   ar
    24    20    21   ar
    25    21    22   ar
    26    22    23   ar
    27    23    24   ar
    28    11    12   ar
    29    12    13   ar
    30    13     8   ar
    31     7     2    1
    32    24    19   ar
    33    30    26   ar
@<TRIPOS>MOLECULE
*****
 30 33 0 0 0
SMALL
GASTEIGER

@<TRIPOS>ATOM
      1 C         142.7302  137.6183  157.1232 C.2     1  UNL1        0.0099
      2 C         143.5293  138.6987  156.4567 C.2     1  UNL1       -0.0400
      3 C         143.6604  140.0441  157.1070 C.3     1  UNL1        0.0394
      4 C         144.4595  141.1244  156.4406 C.3     1  UNL1        0.0768
      5 N         145.1275  140.8595  155.1239 N.3     1  UNL1       -0.2671
      6 C         144.9963  139.5142  154.4736 C.3     1  UNL1        0.0768
      7 C         144.1972  138.4337  155.1401 C.3     1  UNL1        0.0394
      8 C         140.7264  138.4130  161.0732 C.ar    1  UNL1        0.0536
      9 C         139.9768  138.6371  159.7935 C.ar    1  UNL1        0.0045
     10 C         140.6447  138.3722  158.4768 C.ar    1  UNL1        0.0002
     11 C         142.0622  137.8832  158.4399 C.ar    1  UNL1        0.0008
     12 C         142.8118  137.6591  159.7196 C.ar    1  UNL1        0.0002
     13 C         142.1439  137.9240  161.0363 C.ar    1  UNL1        0.0045
     14 C         139.5052  140.2943  164.3473 C.3     1  UNL1        0.1152
     15 N         140.1731  140.0294  163.0306 N.am    1  UNL1       -0.2726
     16 C         140.9558  141.1159  162.3546 C.3     1  UNL1        0.1152
     17 C         140.0584  138.6780  162.3899 C.2     1  UNL1        0.2491
     18 O         139.2758  137.5915  163.0659 O.2     1  UNL1       -0.2699
     19 C         142.5990  136.2730  156.4729 C.ar    1  UNL1        0.0807
     20 C         141.3860  135.9523  155.6509 C.ar    1  UNL1        0.0191
     21 C         141.2548  134.6069  155.0006 C.ar    1  UNL1        0.0031
     22 C         142.3367  133.5823  155.1724 C.ar    1  UNL1        0.0207
     23 C         143.5498  133.9029  155.9944 C.ar    1  UNL1        0.0988
     24 N         143.6809  135.2482  156.6446 N.ar    1  UNL1       -0.2439
     25 C         145.9266  141.9400  154.4575 C.3     1  UNL1        0.1192
     26 C         147.4217  141.8369  154.3950 C.ar    1  UNL1        0.0823
     27 C         148.3501  141.7604  155.5706 C.ar    1  UNL1        0.0530
     28 S         149.7531  141.6684  155.0481 S.2     1  UNL1       -0.0643
     29 C         149.6919  141.6880  153.5494 C.ar    1  UNL1        0.1341
     30 N         148.2510  141.7922  153.1458 N.ar    1  UNL1       -0.2392
@<TRIPOS>BOND
     1    14    15    1
     2    15    16    1
     3    15    17   am
     4    17    18    2
     5    17     8    1
     6     8     9   ar
     7     9    10   ar
     8    10    11   ar
     9    11     1    1
    10     1     2    2
    11     2     3    1
    12     3     4    1
    13     4     5    1
    14     5    25    1
    15    25    26    1
    16    26    27   ar
    17    27    28   ar
    18    28    29   ar
    19    29    30   ar
    20     5     6    1
    21     6     7    1
    22     1    19    1
    23    19    20   ar
    24    20    21   ar
    25    21    22   ar
    26    22    23   ar
    27    23    24   ar
    28    11    12   ar
    29    12    13   ar
    30    13     8   ar
    31     7     2    1
    32    24    19   ar
    33    30    26   ar
@<TRIPOS>MOLECULE
*****
 30 33 0 0 0
SMALL
GASTEIGER

@<TRIPOS>ATOM
      1 C         140.6808  141.5694  162.3132 C.2     1  UNL1        0.0099
      2 C         141.3521  141.8019  163.6342 C.2     1  UNL1       -0.0400
      3 C         142.2293  143.0031  163.8287 C.3     1  UNL1        0.0394
      4 C         142.9006  143.2357  165.1497 C.3     1  UNL1        0.0768
      5 N         142.6948  142.2671  166.2764 N.3     1  UNL1       -0.2671
      6 C         141.8177  141.0659  166.0821 C.3     1  UNL1        0.0768
      7 C         141.1463  140.8333  164.7609 C.3     1  UNL1        0.0394
      8 C         141.2983  144.4752  158.9331 C.ar    1  UNL1        0.0536
      9 C         140.2829  144.7678  159.9977 C.ar    1  UNL1        0.0045
     10 C         140.0771  143.7992  161.1244 C.ar    1  UNL1        0.0002
     11 C         140.8866  142.5380  161.1865 C.ar    1  UNL1        0.0008
     12 C         141.9020  142.2453  160.1219 C.ar    1  UNL1        0.0002
     13 C         142.1078  143.2139  158.9952 C.ar    1  UNL1        0.0045
     14 C         140.7938  146.3872  155.4923 C.3     1  UNL1        0.1152
     15 N         140.5880  145.4186  156.6189 N.am    1  UNL1       -0.2726
     16 C         139.4661  144.4248  156.5581 C.3     1  UNL1        0.1152
     17 C         141.5041  145.4438  157.8064 C.2     1  UNL1        0.2491
     18 O         142.6260  146.4376  157.8672 O.2     1  UNL1       -0.2699
     19 C         139.8037  140.3682  162.1188 C.ar    1  UNL1        0.0807
     20 C         138.3279  140.5423  161.9147 C.ar    1  UNL1        0.0191
     21 C         137.4508  139.3410  161.7203 C.ar    1  UNL1        0.0031
     22 C         138.0495  137.9657  161.7301 C.ar    1  UNL1        0.0207
     23 C         139.5253  137.7916  161.9343 C.ar    1  UNL1        0.0988
     24 N         140.4024  138.9928  162.1286 N.ar    1  UNL1       -0.2439
     25 C         143.3661  142.4997  167.5975 C.3     1  UNL1        0.1192
     26 C         142.6544  142.1535  168.8717 C.ar    1  UNL1        0.0823
     27 C         142.9539  140.9814  169.7584 C.ar    1  UNL1        0.0530
     28 S         142.0029  141.0221  170.9177 S.2     1  UNL1       -0.0643
     29 C         141.1155  142.2195  170.7474 C.ar    1  UNL1        0.1341
     30 N         141.5182  142.9187  169.4829 N.ar    1  UNL1       -0.2392
@<TRIPOS>BOND
     1    14    15    1
     2    15    16    1
     3    15    17   am
     4    17    18    2
     5    17     8    1
     6     8     9   ar
     7     9    10   ar
     8    10    11   ar
     9    11     1    1
    10     1     2    2
    11     2     3    1
    12     3     4    1
    13     4     5    1
    14     5    25    1
    15    25    26    1
    16    26    27   ar
    17    27    28   ar
    18    28    29   ar
    19    29    30   ar
    20     5     6    1
    21     6     7    1
    22     1    19    1
    23    19    20   ar
    24    20    21   ar
    25    21    22   ar
    26    22    23   ar
    27    23    24   ar
    28    11    12   ar
    29    12    13   ar
    30    13     8   ar
    31     7     2    1
    32    24    19   ar
    33    30    26   ar
@<TRIPOS>MOLECULE
*****
 30 33 0 0 0
SMALL
GASTEIGER

@<TRIPOS>ATOM
      1 C         141.5907  140.9339  162.2962 C.2     1  UNL1        0.0099
      2 C         142.0403  141.3164  163.6752 C.2     1  UNL1       -0.0400
      3 C         143.3344  142.0507  163.8654 C.3     1  UNL1        0.0394
      4 C         143.7840  142.4332  165.2444 C.3     1  UNL1        0.0768
      5 N         142.9396  142.0813  166.4331 N.3     1  UNL1       -0.2671
      6 C         141.6456  141.3470  166.2429 C.3     1  UNL1        0.0768
      7 C         141.1959  140.9645  164.8639 C.3     1  UNL1        0.0394
      8 C         144.1240  141.9894  158.7300 C.ar    1  UNL1        0.0536
      9 C         144.0946  140.5784  159.2378 C.ar    1  UNL1        0.0045
     10 C         143.2502  140.2265  160.4266 C.ar    1  UNL1        0.0002
     11 C         142.4351  141.2858  161.1075 C.ar    1  UNL1        0.0008
     12 C         142.4645  142.6968  160.5996 C.ar    1  UNL1        0.0002
     13 C         143.3089  143.0487  159.4108 C.ar    1  UNL1        0.0045
     14 C         145.2267  142.6362  154.9729 C.3     1  UNL1        0.1152
     15 N         144.3823  142.2844  156.1617 N.am    1  UNL1       -0.2726
     16 C         142.9517  141.8756  155.9708 C.3     1  UNL1        0.1152
     17 C         144.9684  142.3413  157.5412 C.2     1  UNL1        0.2491
     18 O         146.3989  142.7500  157.7320 O.2     1  UNL1       -0.2699
     19 C         140.2967  140.1996  162.1061 C.ar    1  UNL1        0.0807
     20 C         140.2795  138.6997  162.0985 C.ar    1  UNL1        0.0191
     21 C         138.9854  137.9654  161.9084 C.ar    1  UNL1        0.0031
     22 C         137.7085  138.7310  161.7257 C.ar    1  UNL1        0.0207
     23 C         137.7256  140.2309  161.7332 C.ar    1  UNL1        0.0988
     24 N         139.0197  140.9652  161.9234 N.ar    1  UNL1       -0.2439
     25 C         143.3893  142.4638  167.8121 C.3     1  UNL1        0.1192
     26 C         142.7796  141.7997  169.0110 C.ar    1  UNL1        0.0823
     27 C         141.7500  142.3989  169.9224 C.ar    1  UNL1        0.0530
     28 S         141.4266  141.3894  170.9836 S.2     1  UNL1       -0.0643
     29 C         142.2564  140.1662  170.7280 C.ar    1  UNL1        0.1341
     30 N         143.0926  140.4198  169.5089 N.ar    1  UNL1       -0.2392
@<TRIPOS>BOND
     1    14    15    1
     2    15    16    1
     3    15    17   am
     4    17    18    2
     5    17     8    1
     6     8     9   ar
     7     9    10   ar
     8    10    11   ar
     9    11     1    1
    10     1     2    2
    11     2     3    1
    12     3     4    1
    13     4     5    1
    14     5    25    1
    15    25    26    1
    16    26    27   ar
    17    27    28   ar
    18    28    29   ar
    19    29    30   ar
    20     5     6    1
    21     6     7    1
    22     1    19    1
    23    19    20   ar
    24    20    21   ar
    25    21    22   ar
    26    22    23   ar
    27    23    24   ar
    28    11    12   ar
    29    12    13   ar
    30    13     8   ar
    31     7     2    1
    32    24    19   ar
    33    30    26   ar
@<TRIPOS>MOLECULE
*****
 30 33 0 0 0
SMALL
GASTEIGER

@<TRIPOS>ATOM
      1 C         141.8848  140.5749  167.7991 C.2     1  UNL1        0.0099
      2 C         142.6401  139.3837  168.3093 C.2     1  UNL1       -0.0400
      3 C         143.4122  138.5205  167.3559 C.3     1  UNL1        0.0394
      4 C         144.1675  137.3292  167.8662 C.3     1  UNL1        0.0768
      5 N         144.1509  137.0012  169.3298 N.3     1  UNL1       -0.2671
      6 C         143.3789  137.8644  170.2831 C.3     1  UNL1        0.0768
      7 C         142.6235  139.0557  169.7729 C.3     1  UNL1        0.0394
      8 C         141.9347  141.5591  163.4083 C.ar    1  UNL1        0.0536
      9 C         140.8455  140.6947  163.9708 C.ar    1  UNL1        0.0045
     10 C         140.8289  140.3667  165.4344 C.ar    1  UNL1        0.0002
     11 C         141.9014  140.9030  166.3355 C.ar    1  UNL1        0.0008
     12 C         142.9906  141.7673  165.7729 C.ar    1  UNL1        0.0002
     13 C         143.0073  142.0954  164.3093 C.ar    1  UNL1        0.0045
     14 C         141.2719  143.4459  159.9804 C.3     1  UNL1        0.1152
     15 N         141.2553  143.1179  161.4440 N.am    1  UNL1       -0.2726
     16 C         140.5426  144.0206  162.4069 C.3     1  UNL1        0.1152
     17 C         141.9513  141.8871  161.9447 C.2     1  UNL1        0.2491
     18 O         142.6640  140.9844  160.9818 O.2     1  UNL1       -0.2699
     19 C         141.1128  141.4381  168.7524 C.ar    1  UNL1        0.0807
     20 C         141.5373  142.8568  168.9917 C.ar    1  UNL1        0.0191
     21 C         140.7652  143.7199  169.9451 C.ar    1  UNL1        0.0031
     22 C         139.5688  143.1645  170.6592 C.ar    1  UNL1        0.0207
     23 C         139.1443  141.7458  170.4199 C.ar    1  UNL1        0.0988
     24 N         139.9163  140.8826  169.4665 N.ar    1  UNL1       -0.2439
     25 C         144.9063  135.8099  169.8400 C.3     1  UNL1        0.1192
     26 C         145.5138  135.8380  171.2112 C.ar    1  UNL1        0.0823
     27 C         145.1447  134.9437  172.3575 C.ar    1  UNL1        0.0530
     28 S         145.9997  135.3183  173.5316 S.2     1  UNL1       -0.0643
     29 C         146.8974  136.4441  173.1109 C.ar    1  UNL1        0.1341
     30 N         146.5970  136.7653  171.6768 N.ar    1  UNL1       -0.2392
@<TRIPOS>BOND
     1    14    15    1
     2    15    16    1
     3    15    17   am
     4    17    18    2
     5    17     8    1
     6     8     9   ar
     7     9    10   ar
     8    10    11   ar
     9    11     1    1
    10     1     2    2
    11     2     3    1
    12     3     4    1
    13     4     5    1
    14     5    25    1
    15    25    26    1
    16    26    27   ar
    17    27    28   ar
    18    28    29   ar
    19    29    30   ar
    20     5     6    1
    21     6     7    1
    22     1    19    1
    23    19    20   ar
    24    20    21   ar
    25    21    22   ar
    26    22    23   ar
    27    23    24   ar
    28    11    12   ar
    29    12    13   ar
    30    13     8   ar
    31     7     2    1
    32    24    19   ar
    33    30    26   ar
