@<TRIPOS>MOLECULE
*****
 24 27 0 0 0
SMALL
GASTEIGER

@<TRIPOS>ATOM
      1 C         141.1915  140.0628  169.5490 C.3     1  UNL1        0.0746
      2 C         142.5698  139.4871  169.6864 C.3     1  UNL1        0.2101
      3 O         143.0563  139.1175  168.3164 O.3     1  UNL1       -0.4753
      4 C         141.9787  139.4647  167.3325 C.ar    1  UNL1        0.1379
      5 C         141.8980  139.3244  165.8413 C.ar    1  UNL1        0.0766
      6 C         140.6648  139.7683  165.1118 C.ar    1  UNL1        0.1757
      7 C         139.5122  140.3525  165.8735 C.ar    1  UNL1        0.1723
      8 C         139.5929  140.4928  167.3648 C.ar    1  UNL1        0.0389
      9 C         140.8261  140.0489  168.0943 C.ar    1  UNL1        0.0187
     10 O         138.2790  140.7964  165.1441 O.3     1  UNL1       -0.4681
     11 C         138.1983  140.6561  163.6529 C.3     1  UNL1        0.2533
     12 C         139.3509  140.0719  162.8911 C.3     1  UNL1        0.2317
     13 O         140.5841  139.6280  163.6205 O.3     1  UNL1       -0.4677
     14 C         139.2702  139.9316  161.3998 C.ar    1  UNL1        0.0214
     15 C         138.0763  140.4588  160.6604 C.ar    1  UNL1       -0.0007
     16 C         137.9956  140.3184  159.1692 C.ar    1  UNL1        0.0003
     17 C         139.1088  139.6509  158.4173 C.ar    1  UNL1        0.0067
     18 C         140.3027  139.1237  159.1568 C.ar    1  UNL1        0.0344
     19 BR        141.4159  138.4562  158.4050 Br      1  UNL1       -0.0490
     20 C         140.3834  139.2641  160.6480 C.ar    1  UNL1        0.0060
     21 C         140.3297  140.5642  170.6697 C.3     1  UNL1        0.0499
     22 O         139.4713  142.9541  171.2190 O.co2   1  UNL1       -0.5492
     23 C         140.5664  141.9293  171.2448 C.2     1  UNL1        0.0508
     24 O         141.8980  142.2695  171.8456 O.co2   1  UNL1       -0.5492
@<TRIPOS>UNITY_ATOM_ATTR
22 1
charge -1
@<TRIPOS>BOND
     1    22    23   ar
     2    23    24   ar
     3    23    21    1
     4     1    21    1
     5     1     2    1
     6     2     3    1
     7     3     4    1
     8     4     5   ar
     9     5     6   ar
    10     6     7   ar
    11     7     8   ar
    12     8     9   ar
    13     7    10    1
    14    10    11    1
    15    11    12    1
    16    12    14    1
    17    14    15   ar
    18    15    16   ar
    19    16    17   ar
    20    17    18   ar
    21    18    19    1
    22    18    20   ar
    23    12    13    1
    24     9     1    1
    25    20    14   ar
    26     9     4   ar
    27    13     6    1
@<TRIPOS>MOLECULE
*****
 24 27 0 0 0
SMALL
GASTEIGER

@<TRIPOS>ATOM
      1 C         140.6678  141.0735  168.7171 C.3     1  UNL1        0.0746
      2 C         141.6574  139.9624  168.9075 C.3     1  UNL1        0.2101
      3 O         142.4287  139.8050  167.6307 O.3     1  UNL1       -0.4753
      4 C         141.9158  140.8186  166.6512 C.ar    1  UNL1        0.1379
      5 C         142.2991  141.1290  165.2346 C.ar    1  UNL1        0.0766
      6 C         141.5941  142.2235  164.4895 C.ar    1  UNL1        0.1757
      7 C         140.5058  143.0075  165.1609 C.ar    1  UNL1        0.1723
      8 C         140.1224  142.6970  166.5776 C.ar    1  UNL1        0.0389
      9 C         140.8275  141.6026  167.3226 C.ar    1  UNL1        0.0187
     10 O         139.8008  144.1019  164.4159 O.3     1  UNL1       -0.4681
     11 C         140.1841  144.4123  162.9993 C.3     1  UNL1        0.2533
     12 C         141.2725  143.6283  162.3279 C.3     1  UNL1        0.2317
     13 O         141.9775  142.5339  163.0729 O.3     1  UNL1       -0.4677
     14 C         141.6558  143.9388  160.9112 C.ar    1  UNL1        0.0214
     15 C         140.9767  145.0577  160.1786 C.ar    1  UNL1       -0.0007
     16 C         141.3601  145.3682  158.7619 C.ar    1  UNL1        0.0003
     17 C         142.4225  144.5597  158.0781 C.ar    1  UNL1        0.0067
     18 C         143.1015  143.4407  158.8108 C.ar    1  UNL1        0.0344
     19 BR        144.1639  142.6322  158.1270 Br      1  UNL1       -0.0490
     20 C         142.7182  143.1303  160.2274 C.ar    1  UNL1        0.0060
     21 C         139.6901  141.5684  169.7414 C.3     1  UNL1        0.0499
     22 O         140.0130  144.0850  170.3004 O.co2   1  UNL1       -0.5492
     23 C         140.0945  142.6433  170.7063 C.2     1  UNL1        0.0508
     24 O         140.5804  142.2764  172.0773 O.co2   1  UNL1       -0.5492
@<TRIPOS>UNITY_ATOM_ATTR
22 1
charge -1
@<TRIPOS>BOND
     1    22    23   ar
     2    23    24   ar
     3    23    21    1
     4     1    21    1
     5     1     2    1
     6     2     3    1
     7     3     4    1
     8     4     5   ar
     9     5     6   ar
    10     6     7   ar
    11     7     8   ar
    12     8     9   ar
    13     7    10    1
    14    10    11    1
    15    11    12    1
    16    12    14    1
    17    14    15   ar
    18    15    16   ar
    19    16    17   ar
    20    17    18   ar
    21    18    19    1
    22    18    20   ar
    23    12    13    1
    24     9     1    1
    25    20    14   ar
    26     9     4   ar
    27    13     6    1
@<TRIPOS>MOLECULE
*****
 24 27 0 0 0
SMALL
GASTEIGER

@<TRIPOS>ATOM
      1 C         141.2105  142.1784  168.1686 C.3     1  UNL1        0.0746
      2 C         142.7029  142.1899  168.3189 C.3     1  UNL1        0.2101
      3 O         143.3033  142.4223  166.9640 O.3     1  UNL1       -0.4753
      4 C         142.1820  142.5544  165.9765 C.ar    1  UNL1        0.1379
      5 C         142.1717  142.7925  164.4956 C.ar    1  UNL1        0.0766
      6 C         140.8678  142.8798  163.7591 C.ar    1  UNL1        0.1757
      7 C         139.5744  142.7291  164.5036 C.ar    1  UNL1        0.1723
      8 C         139.5848  142.4910  165.9846 C.ar    1  UNL1        0.0389
      9 C         140.8886  142.4037  166.7210 C.ar    1  UNL1        0.0187
     10 O         138.2705  142.8164  163.7671 O.3     1  UNL1       -0.4681
     11 C         138.2602  143.0545  162.2862 C.3     1  UNL1        0.2533
     12 C         139.5536  143.2052  161.5417 C.3     1  UNL1        0.2317
     13 O         140.8574  143.1179  162.2782 O.3     1  UNL1       -0.4677
     14 C         139.5432  143.4433  160.0607 C.ar    1  UNL1        0.0214
     15 C         138.6566  142.6192  159.1748 C.ar    1  UNL1       -0.0007
     16 C         138.6462  142.8573  157.6938 C.ar    1  UNL1        0.0003
     17 C         139.5224  143.9194  157.0988 C.ar    1  UNL1        0.0067
     18 C         140.4090  144.7435  157.9848 C.ar    1  UNL1        0.0344
     19 BR        141.2853  145.8057  157.3897 Br      1  UNL1       -0.0490
     20 C         140.4194  144.5054  159.4657 C.ar    1  UNL1        0.0060
     21 C         140.2148  141.9771  169.2723 C.3     1  UNL1        0.0499
     22 O         140.0043  144.3475  170.3147 O.co2   1  UNL1       -0.5492
     23 C         140.2359  142.8741  170.4743 C.2     1  UNL1        0.0508
     24 O         140.4885  142.2978  171.8360 O.co2   1  UNL1       -0.5492
@<TRIPOS>UNITY_ATOM_ATTR
22 1
charge -1
@<TRIPOS>BOND
     1    22    23   ar
     2    23    24   ar
     3    23    21    1
     4     1    21    1
     5     1     2    1
     6     2     3    1
     7     3     4    1
     8     4     5   ar
     9     5     6   ar
    10     6     7   ar
    11     7     8   ar
    12     8     9   ar
    13     7    10    1
    14    10    11    1
    15    11    12    1
    16    12    14    1
    17    14    15   ar
    18    15    16   ar
    19    16    17   ar
    20    17    18   ar
    21    18    19    1
    22    18    20   ar
    23    12    13    1
    24     9     1    1
    25    20    14   ar
    26     9     4   ar
    27    13     6    1
@<TRIPOS>MOLECULE
*****
 24 27 0 0 0
SMALL
GASTEIGER

@<TRIPOS>ATOM
      1 C         141.4966  142.2480  168.6637 C.3     1  UNL1        0.0746
      2 C         142.9098  142.2689  169.1661 C.3     1  UNL1        0.2101
      3 O         143.8116  142.5524  168.0014 O.3     1  UNL1       -0.4753
      4 C         142.9557  142.7067  166.7793 C.ar    1  UNL1        0.1379
      5 C         143.2944  142.9942  165.3466 C.ar    1  UNL1        0.0766
      6 C         142.2022  143.0936  164.3231 C.ar    1  UNL1        0.1757
      7 C         140.7714  142.9054  164.7324 C.ar    1  UNL1        0.1723
      8 C         140.4328  142.6179  166.1652 C.ar    1  UNL1        0.0389
      9 C         141.5250  142.5186  167.1886 C.ar    1  UNL1        0.0187
     10 O         139.6793  143.0048  163.7091 O.3     1  UNL1       -0.4681
     11 C         140.0179  143.2923  162.2764 C.3     1  UNL1        0.2533
     12 C         141.4487  143.4804  161.8671 C.3     1  UNL1        0.2317
     13 O         142.5408  143.3811  162.8904 O.3     1  UNL1       -0.4677
     14 C         141.7873  143.7679  160.4343 C.ar    1  UNL1        0.0214
     15 C         142.9657  143.0971  159.7929 C.ar    1  UNL1       -0.0007
     16 C         143.3043  143.3846  158.3602 C.ar    1  UNL1        0.0003
     17 C         142.4644  144.3430  157.5688 C.ar    1  UNL1        0.0067
     18 C         141.2860  145.0138  158.2102 C.ar    1  UNL1        0.0344
     19 BR        140.4462  145.9722  157.4189 Br      1  UNL1       -0.0490
     20 C         140.9475  144.7263  159.6429 C.ar    1  UNL1        0.0060
     21 C         140.2703  142.0001  169.4912 C.3     1  UNL1        0.0499
     22 O         140.3626  142.1205  172.0848 O.co2   1  UNL1       -0.5492
     23 C         140.0577  142.7638  170.7645 C.2     1  UNL1        0.0508
     24 O         139.5402  144.1710  170.7177 O.co2   1  UNL1       -0.5492
@<TRIPOS>UNITY_ATOM_ATTR
22 1
charge -1
@<TRIPOS>BOND
     1    22    23   ar
     2    23    24   ar
     3    23    21    1
     4     1    21    1
     5     1     2    1
     6     2     3    1
     7     3     4    1
     8     4     5   ar
     9     5     6   ar
    10     6     7   ar
    11     7     8   ar
    12     8     9   ar
    13     7    10    1
    14    10    11    1
    15    11    12    1
    16    12    14    1
    17    14    15   ar
    18    15    16   ar
    19    16    17   ar
    20    17    18   ar
    21    18    19    1
    22    18    20   ar
    23    12    13    1
    24     9     1    1
    25    20    14   ar
    26     9     4   ar
    27    13     6    1
@<TRIPOS>MOLECULE
*****
 24 27 0 0 0
SMALL
GASTEIGER

@<TRIPOS>ATOM
      1 C         140.2450  141.4560  168.3996 C.3     1  UNL1        0.0746
      2 C         139.5786  140.1216  168.5588 C.3     1  UNL1        0.2101
      3 O         139.0848  139.6864  167.2110 O.3     1  UNL1       -0.4753
      4 C         139.4460  140.7517  166.2187 C.ar    1  UNL1        0.1379
      5 C         139.2147  140.8672  164.7412 C.ar    1  UNL1        0.0766
      6 C         139.7004  142.0764  163.9982 C.ar    1  UNL1        0.1757
      7 C         140.4175  143.1701  164.7328 C.ar    1  UNL1        0.1723
      8 C         140.6488  143.0545  166.2104 C.ar    1  UNL1        0.0389
      9 C         140.1631  141.8454  166.9533 C.ar    1  UNL1        0.0187
     10 O         140.9032  144.3792  163.9899 O.3     1  UNL1       -0.4681
     11 C         140.6719  144.4947  162.5124 C.3     1  UNL1        0.2533
     12 C         139.9548  143.4010  161.7778 C.3     1  UNL1        0.2317
     13 O         139.4691  142.1919  162.5207 O.3     1  UNL1       -0.4677
     14 C         139.7234  143.5166  160.3002 C.ar    1  UNL1        0.0214
     15 C         138.8329  142.5325  159.6013 C.ar    1  UNL1       -0.0007
     16 C         138.6016  142.6481  158.1237 C.ar    1  UNL1        0.0003
     17 C         139.2608  143.7477  157.3451 C.ar    1  UNL1        0.0067
     18 C         140.1514  144.7318  158.0441 C.ar    1  UNL1        0.0344
     19 BR        140.8106  145.8314  157.2655 Br      1  UNL1       -0.0490
     20 C         140.3827  144.6162  159.5216 C.ar    1  UNL1        0.0060
     21 C         140.8816  142.2598  169.4944 C.3     1  UNL1        0.0499
     22 O         139.2357  143.3374  171.1913 O.co2   1  UNL1       -0.5492
     23 C         140.2599  142.2931  170.8590 C.2     1  UNL1        0.0508
     24 O         140.6623  141.2821  171.8915 O.co2   1  UNL1       -0.5492
@<TRIPOS>UNITY_ATOM_ATTR
22 1
charge -1
@<TRIPOS>BOND
     1    22    23   ar
     2    23    24   ar
     3    23    21    1
     4     1    21    1
     5     1     2    1
     6     2     3    1
     7     3     4    1
     8     4     5   ar
     9     5     6   ar
    10     6     7   ar
    11     7     8   ar
    12     8     9   ar
    13     7    10    1
    14    10    11    1
    15    11    12    1
    16    12    14    1
    17    14    15   ar
    18    15    16   ar
    19    16    17   ar
    20    17    18   ar
    21    18    19    1
    22    18    20   ar
    23    12    13    1
    24     9     1    1
    25    20    14   ar
    26     9     4   ar
    27    13     6    1
@<TRIPOS>MOLECULE
*****
 24 27 0 0 0
SMALL
GASTEIGER

@<TRIPOS>ATOM
      1 C         140.8745  140.5524  169.1671 C.3     1  UNL1        0.0746
      2 C         142.1199  139.9901  169.7859 C.3     1  UNL1        0.2101
      3 O         142.9340  139.3575  168.6963 O.3     1  UNL1       -0.4753
      4 C         142.1917  139.5288  167.4041 C.ar    1  UNL1        0.1379
      5 C         142.5104  139.1078  166.0002 C.ar    1  UNL1        0.0766
      6 C         141.5562  139.4252  164.8871 C.ar    1  UNL1        0.1757
      7 C         140.2834  140.1637  165.1780 C.ar    1  UNL1        0.1723
      8 C         139.9648  140.5847  166.5821 C.ar    1  UNL1        0.0389
      9 C         140.9189  140.2673  167.6951 C.ar    1  UNL1        0.0187
     10 O         139.3293  140.4811  164.0650 O.3     1  UNL1       -0.4681
     11 C         139.6479  140.0601  162.6611 C.3     1  UNL1        0.2533
     12 C         140.9207  139.3216  162.3701 C.3     1  UNL1        0.2317
     13 O         141.8749  139.0042  163.4831 O.3     1  UNL1       -0.4677
     14 C         141.2394  138.9006  160.9661 C.ar    1  UNL1        0.0214
     15 C         142.5162  138.1696  160.6738 C.ar    1  UNL1       -0.0007
     16 C         142.8348  137.7486  159.2697 C.ar    1  UNL1        0.0003
     17 C         141.8766  138.0586  158.1580 C.ar    1  UNL1        0.0067
     18 C         140.5998  138.7896  158.4504 C.ar    1  UNL1        0.0344
     19 BR        139.6416  139.0996  157.3388 Br      1  UNL1       -0.0490
     20 C         140.2812  139.2106  159.8544 C.ar    1  UNL1        0.0060
     21 C         139.7774  141.2731  169.8928 C.3     1  UNL1        0.0499
     22 O         140.5419  142.1866  172.2017 O.co2   1  UNL1       -0.5492
     23 C         140.1050  142.4314  170.7878 C.2     1  UNL1        0.0508
     24 O         139.9957  143.8346  170.2690 O.co2   1  UNL1       -0.5492
@<TRIPOS>UNITY_ATOM_ATTR
22 1
charge -1
@<TRIPOS>BOND
     1    22    23   ar
     2    23    24   ar
     3    23    21    1
     4     1    21    1
     5     1     2    1
     6     2     3    1
     7     3     4    1
     8     4     5   ar
     9     5     6   ar
    10     6     7   ar
    11     7     8   ar
    12     8     9   ar
    13     7    10    1
    14    10    11    1
    15    11    12    1
    16    12    14    1
    17    14    15   ar
    18    15    16   ar
    19    16    17   ar
    20    17    18   ar
    21    18    19    1
    22    18    20   ar
    23    12    13    1
    24     9     1    1
    25    20    14   ar
    26     9     4   ar
    27    13     6    1
@<TRIPOS>MOLECULE
*****
 24 27 0 0 0
SMALL
GASTEIGER

@<TRIPOS>ATOM
      1 C         140.9441  140.2736  169.2076 C.3     1  UNL1        0.0746
      2 C         142.0096  139.4435  169.8598 C.3     1  UNL1        0.2101
      3 O         142.9385  138.9558  168.7877 O.3     1  UNL1       -0.4753
      4 C         142.4469  139.4845  167.4728 C.ar    1  UNL1        0.1379
      5 C         142.9625  139.3296  166.0728 C.ar    1  UNL1        0.0766
      6 C         142.2454  139.9890  164.9322 C.ar    1  UNL1        0.1757
      7 C         141.0128  140.8035  165.1916 C.ar    1  UNL1        0.1723
      8 C         140.4972  140.9584  166.5918 C.ar    1  UNL1        0.0389
      9 C         141.2143  140.2989  167.7323 C.ar    1  UNL1        0.0187
     10 O         140.2957  141.4629  164.0511 O.3     1  UNL1       -0.4681
     11 C         140.8113  141.3080  162.6511 C.3     1  UNL1        0.2533
     12 C         142.0439  140.4935  162.3916 C.3     1  UNL1        0.2317
     13 O         142.7610  139.8341  163.5321 O.3     1  UNL1       -0.4677
     14 C         142.5595  140.3386  160.9915 C.ar    1  UNL1        0.0214
     15 C         142.2816  139.0796  160.2249 C.ar    1  UNL1       -0.0007
     16 C         142.7971  138.9247  158.8248 C.ar    1  UNL1        0.0003
     17 C         143.5906  140.0288  158.1913 C.ar    1  UNL1        0.0067
     18 C         143.8685  141.2878  158.9579 C.ar    1  UNL1        0.0344
     19 BR        144.6620  142.3919  158.3244 Br      1  UNL1       -0.0490
     20 C         143.3530  141.4427  160.3580 C.ar    1  UNL1        0.0060
     21 C         139.8077  140.9581  169.9076 C.3     1  UNL1        0.0499
     22 O         139.8663  143.5555  169.9030 O.co2   1  UNL1       -0.5492
     23 C         140.0412  142.2535  170.6269 C.2     1  UNL1        0.0508
     24 O         140.4496  142.2470  172.0703 O.co2   1  UNL1       -0.5492
@<TRIPOS>UNITY_ATOM_ATTR
22 1
charge -1
@<TRIPOS>BOND
     1    22    23   ar
     2    23    24   ar
     3    23    21    1
     4     1    21    1
     5     1     2    1
     6     2     3    1
     7     3     4    1
     8     4     5   ar
     9     5     6   ar
    10     6     7   ar
    11     7     8   ar
    12     8     9   ar
    13     7    10    1
    14    10    11    1
    15    11    12    1
    16    12    14    1
    17    14    15   ar
    18    15    16   ar
    19    16    17   ar
    20    17    18   ar
    21    18    19    1
    22    18    20   ar
    23    12    13    1
    24     9     1    1
    25    20    14   ar
    26     9     4   ar
    27    13     6    1
@<TRIPOS>MOLECULE
*****
 24 27 0 0 0
SMALL
GASTEIGER

@<TRIPOS>ATOM
      1 C         140.1598  141.2684  168.6643 C.3     1  UNL1        0.0746
      2 C         139.2992  140.2150  169.2965 C.3     1  UNL1        0.2101
      3 O         138.7174  139.3724  168.2004 O.3     1  UNL1       -0.4753
      4 C         139.2184  139.9051  166.8907 C.ar    1  UNL1        0.1379
      5 C         138.9780  139.4745  165.4741 C.ar    1  UNL1        0.0766
      6 C         139.6291  140.2157  164.3441 C.ar    1  UNL1        0.1757
      7 C         140.5205  141.3875  164.6308 C.ar    1  UNL1        0.1723
      8 C         140.7609  141.8181  166.0475 C.ar    1  UNL1        0.0389
      9 C         140.1098  141.0769  167.1774 C.ar    1  UNL1        0.0187
     10 O         141.1715  142.1288  163.5009 O.3     1  UNL1       -0.4681
     11 C         140.9312  141.6982  162.0844 C.3     1  UNL1        0.2533
     12 C         140.0398  140.5263  161.7976 C.3     1  UNL1        0.2317
     13 O         139.3887  139.7851  162.9275 O.3     1  UNL1       -0.4677
     14 C         139.7994  140.0957  160.3810 C.ar    1  UNL1        0.0214
     15 C         140.5461  138.9237  159.8164 C.ar    1  UNL1       -0.0007
     16 C         140.3057  138.4931  158.3997 C.ar    1  UNL1        0.0003
     17 C         139.3187  139.2346  157.5477 C.ar    1  UNL1        0.0067
     18 C         138.5720  140.4067  158.1123 C.ar    1  UNL1        0.0344
     19 BR        137.5850  141.1482  157.2603 Br      1  UNL1       -0.0490
     20 C         138.8124  140.8372  159.5289 C.ar    1  UNL1        0.0060
     21 C         140.9343  142.3275  169.3912 C.3     1  UNL1        0.0499
     22 O         140.4203  142.2452  171.9366 O.co2   1  UNL1       -0.5492
     23 C         140.3603  142.9647  170.6219 C.2     1  UNL1        0.0508
     24 O         139.7263  144.3216  170.5378 O.co2   1  UNL1       -0.5492
@<TRIPOS>UNITY_ATOM_ATTR
22 1
charge -1
@<TRIPOS>BOND
     1    22    23   ar
     2    23    24   ar
     3    23    21    1
     4     1    21    1
     5     1     2    1
     6     2     3    1
     7     3     4    1
     8     4     5   ar
     9     5     6   ar
    10     6     7   ar
    11     7     8   ar
    12     8     9   ar
    13     7    10    1
    14    10    11    1
    15    11    12    1
    16    12    14    1
    17    14    15   ar
    18    15    16   ar
    19    16    17   ar
    20    17    18   ar
    21    18    19    1
    22    18    20   ar
    23    12    13    1
    24     9     1    1
    25    20    14   ar
    26     9     4   ar
    27    13     6    1
@<TRIPOS>MOLECULE
*****
 24 27 0 0 0
SMALL
GASTEIGER

@<TRIPOS>ATOM
      1 C         141.3126  142.0532  169.1385 C.3     1  UNL1        0.0746
      2 C         142.6918  142.1675  169.7170 C.3     1  UNL1        0.2101
      3 O         143.6378  142.4923  168.5991 O.3     1  UNL1       -0.4753
      4 C         142.8433  142.5787  167.3298 C.ar    1  UNL1        0.1379
      5 C         143.2427  142.8694  165.9135 C.ar    1  UNL1        0.0766
      6 C         142.2050  142.8887  164.8304 C.ar    1  UNL1        0.1757
      7 C         140.7679  142.6173  165.1638 C.ar    1  UNL1        0.1723
      8 C         140.3685  142.3266  166.5801 C.ar    1  UNL1        0.0389
      9 C         141.4062  142.3073  167.6631 C.ar    1  UNL1        0.0187
     10 O         139.7303  142.6366  164.0808 O.3     1  UNL1       -0.4681
     11 C         140.1297  142.9273  162.6645 C.3     1  UNL1        0.2533
     12 C         141.5668  143.1987  162.3312 C.3     1  UNL1        0.2317
     13 O         142.6045  143.1794  163.4142 O.3     1  UNL1       -0.4677
     14 C         141.9662  143.4895  160.9148 C.ar    1  UNL1        0.0214
     15 C         141.1965  144.4940  160.1097 C.ar    1  UNL1       -0.0007
     16 C         141.5959  144.7847  158.6933 C.ar    1  UNL1        0.0003
     17 C         142.7650  144.0708  158.0822 C.ar    1  UNL1        0.0067
     18 C         143.5348  143.0662  158.8874 C.ar    1  UNL1        0.0344
     19 BR        144.7039  142.3523  158.2763 Br      1  UNL1       -0.0490
     20 C         143.1353  142.7756  160.3037 C.ar    1  UNL1        0.0060
     21 C         140.0597  141.7398  169.9014 C.3     1  UNL1        0.0499
     22 O         139.0271  139.7137  168.6450 O.co2   1  UNL1       -0.5492
     23 C         139.5205  140.3401  169.9154 C.2     1  UNL1        0.0508
     24 O         139.4746  139.5668  171.2000 O.co2   1  UNL1       -0.5492
@<TRIPOS>UNITY_ATOM_ATTR
22 1
charge -1
@<TRIPOS>BOND
     1    22    23   ar
     2    23    24   ar
     3    23    21    1
     4     1    21    1
     5     1     2    1
     6     2     3    1
     7     3     4    1
     8     4     5   ar
     9     5     6   ar
    10     6     7   ar
    11     7     8   ar
    12     8     9   ar
    13     7    10    1
    14    10    11    1
    15    11    12    1
    16    12    14    1
    17    14    15   ar
    18    15    16   ar
    19    16    17   ar
    20    17    18   ar
    21    18    19    1
    22    18    20   ar
    23    12    13    1
    24     9     1    1
    25    20    14   ar
    26     9     4   ar
    27    13     6    1
