@<TRIPOS>MOLECULE
*****
 27 30 0 0 0
SMALL
GASTEIGER

@<TRIPOS>ATOM
      1 C         139.5126  141.2010  165.4282 C.3     1  UNL1        0.1703
      2 C         140.3679  142.4152  165.6384 C.3     1  UNL1        0.0596
      3 C         139.8733  143.7645  165.2088 C.3     1  UNL1        0.0614
      4 C         139.0094  144.8553  164.6485 C.3     1  UNL1        0.0175
      5 C         137.7363  144.2323  164.1577 C.3     1  UNL1        0.0175
      6 C         137.8132  142.7565  164.4147 C.3     1  UNL1        0.0614
      7 C         138.1627  141.3362  164.7884 C.3     1  UNL1        0.0596
      8 N         139.1340  142.4674  165.0643 N.3     1  UNL1       -0.2713
      9 O         140.0072  139.8516  165.8579 O.3     1  UNL1       -0.4629
     10 C         140.9876  139.8244  169.7034 C.ar    1  UNL1        0.1564
     11 C         142.4352  139.4397  169.6242 C.ar    1  UNL1        0.1228
     12 N         143.0735  139.1924  168.2895 N.ar    1  UNL1       -0.2357
     13 C         142.2642  139.3297  167.0342 C.ar    1  UNL1        0.1564
     14 C         140.8166  139.7143  167.1134 C.ar    1  UNL1        0.2447
     15 N         140.1782  139.9617  168.4480 N.ar    1  UNL1       -0.2041
     16 N         139.4785  139.0202  171.6595 N.am    1  UNL1       -0.3240
     17 C         140.3492  140.0717  171.0381 C.2     1  UNL1        0.2622
     18 O         140.5816  141.3707  171.7515 O.2     1  UNL1       -0.2687
     19 H         139.0596  139.1825  172.5355 H       1  UNL1        0.1453
     20 H         139.3260  138.1676  171.1913 H       1  UNL1        0.1453
     21 C         139.6286  141.1181  165.4940 C.3     1  UNL1        0.0991
     22 C         139.7518  140.0099  164.4905 C.ar    1  UNL1       -0.0061
     23 C         138.8024  138.8494  164.5345 C.ar    1  UNL1       -0.0029
     24 C         138.9255  137.7413  163.5311 C.ar    1  UNL1       -0.0003
     25 C         139.9980  137.7936  162.4838 C.ar    1  UNL1       -0.0000
     26 C         140.9475  138.9542  162.4398 C.ar    1  UNL1       -0.0003
     27 C         140.8243  140.0623  163.4432 C.ar    1  UNL1       -0.0029
@<TRIPOS>BOND
     1    16    17   am
     2    17    18    2
     3    17    10    1
     4    10    11   ar
     5    11    12   ar
     6    12    13   ar
     7    13    14   ar
     8    14     9    1
     9     1     9    1
    10     1     2    1
    11     3     2    1
    12     3     4    1
    13     4     5    1
    14     6     5    1
    15     6     7    1
    16     6     8    1
    17     8    21    1
    18    21    22    1
    19    22    23   ar
    20    23    24   ar
    21    24    25   ar
    22    25    26   ar
    23    26    27   ar
    24    14    15   ar
    25    15    10   ar
    26     7     1    1
    27    27    22   ar
    28     8     3    1
    29    16    19    1
    30    16    20    1
@<TRIPOS>MOLECULE
*****
 27 30 0 0 0
SMALL
GASTEIGER

@<TRIPOS>ATOM
      1 C         139.3080  141.2703  165.7681 C.3     1  UNL1        0.1703
      2 C         140.1009  142.5317  165.9418 C.3     1  UNL1        0.0596
      3 C         139.7137  143.7705  165.1900 C.3     1  UNL1        0.0614
      4 C         138.9934  144.7198  164.2789 C.3     1  UNL1        0.0175
      5 C         137.8543  143.9785  163.6441 C.3     1  UNL1        0.0175
      6 C         137.8705  142.5712  164.1630 C.3     1  UNL1        0.0614
      7 C         138.1279  141.2478  164.8424 C.3     1  UNL1        0.0596
      8 N         139.0197  142.4426  165.1184 N.3     1  UNL1       -0.2713
      9 O         139.6953  140.0314  166.5199 O.3     1  UNL1       -0.4629
     10 C         141.7086  140.4120  169.9186 C.ar    1  UNL1        0.1564
     11 C         140.6032  140.2620  170.9213 C.ar    1  UNL1        0.1228
     12 N         139.1951  140.0351  170.4568 N.ar    1  UNL1       -0.2357
     13 C         138.8924  139.9582  168.9897 C.ar    1  UNL1        0.1564
     14 C         139.9979  140.1082  167.9871 C.ar    1  UNL1        0.2447
     15 N         141.4060  140.3351  168.4514 N.ar    1  UNL1       -0.2041
     16 N         143.7709  139.6521  171.3041 N.am    1  UNL1       -0.3240
     17 C         143.1167  140.6389  170.3830 C.2     1  UNL1        0.2622
     18 O         143.8707  141.8527  169.9265 O.2     1  UNL1       -0.2687
     19 H         144.6951  139.8010  171.6089 H       1  UNL1        0.1453
     20 H         143.2761  138.8555  171.6037 H       1  UNL1        0.1453
     21 C         139.4070  141.2038  165.8703 C.3     1  UNL1        0.0991
     22 C         139.7736  139.9563  165.1223 C.ar    1  UNL1       -0.0061
     23 C         138.7888  138.8301  165.0139 C.ar    1  UNL1       -0.0029
     24 C         139.1554  137.5827  164.2660 C.ar    1  UNL1       -0.0003
     25 C         140.5067  137.4615  163.6263 C.ar    1  UNL1       -0.0000
     26 C         141.4916  138.5878  163.7347 C.ar    1  UNL1       -0.0003
     27 C         141.1249  139.8352  164.4827 C.ar    1  UNL1       -0.0029
@<TRIPOS>BOND
     1    16    17   am
     2    17    18    2
     3    17    10    1
     4    10    11   ar
     5    11    12   ar
     6    12    13   ar
     7    13    14   ar
     8    14     9    1
     9     1     9    1
    10     1     2    1
    11     3     2    1
    12     3     4    1
    13     4     5    1
    14     6     5    1
    15     6     7    1
    16     6     8    1
    17     8    21    1
    18    21    22    1
    19    22    23   ar
    20    23    24   ar
    21    24    25   ar
    22    25    26   ar
    23    26    27   ar
    24    14    15   ar
    25    15    10   ar
    26     7     1    1
    27    27    22   ar
    28     8     3    1
    29    16    19    1
    30    16    20    1
@<TRIPOS>MOLECULE
*****
 27 30 0 0 0
SMALL
GASTEIGER

@<TRIPOS>ATOM
      1 C         141.8982  141.6754  165.0470 C.3     1  UNL1        0.1703
      2 C         142.3747  140.3601  164.5060 C.3     1  UNL1        0.0596
      3 C         143.7924  140.2104  164.0391 C.3     1  UNL1        0.0614
      4 C         145.2235  140.5106  163.7048 C.3     1  UNL1        0.0175
      5 C         145.4917  141.9431  164.0599 C.3     1  UNL1        0.0175
      6 C         144.2263  142.5281  164.6137 C.3     1  UNL1        0.0614
      7 C         142.8393  142.8412  165.1211 C.3     1  UNL1        0.0596
      8 N         143.1761  141.4573  164.6009 N.3     1  UNL1       -0.2713
      9 O         140.4806  141.8252  165.5139 O.3     1  UNL1       -0.4629
     10 C         139.9443  141.9146  169.4451 C.ar    1  UNL1        0.1564
     11 C         139.3385  140.5626  169.6794 C.ar    1  UNL1        0.1228
     12 N         139.1134  139.6314  168.5251 N.ar    1  UNL1       -0.2357
     13 C         139.4940  140.0523  167.1367 C.ar    1  UNL1        0.1564
     14 C         140.0999  141.4043  166.9024 C.ar    1  UNL1        0.2447
     15 N         140.3250  142.3355  168.0565 N.ar    1  UNL1       -0.2041
     16 N         140.0896  144.3294  170.3927 N.am    1  UNL1       -0.3240
     17 C         140.1694  142.8458  170.5993 C.2     1  UNL1        0.2622
     18 O         140.4744  142.2934  171.9602 O.2     1  UNL1       -0.2687
     19 H         140.2373  144.9405  171.1503 H       1  UNL1        0.1453
     20 H         139.8894  144.6919  169.4995 H       1  UNL1        0.1453
     21 C         141.7585  141.6069  165.0677 C.3     1  UNL1        0.0991
     22 C         140.8050  142.4770  164.3036 C.ar    1  UNL1       -0.0061
     23 C         140.0701  141.9241  163.1186 C.ar    1  UNL1       -0.0029
     24 C         139.1168  142.7941  162.3545 C.ar    1  UNL1       -0.0003
     25 C         138.8983  144.2172  162.7753 C.ar    1  UNL1       -0.0000
     26 C         139.6332  144.7702  163.9603 C.ar    1  UNL1       -0.0003
     27 C         140.5866  143.9001  164.7244 C.ar    1  UNL1       -0.0029
@<TRIPOS>BOND
     1    16    17   am
     2    17    18    2
     3    17    10    1
     4    10    11   ar
     5    11    12   ar
     6    12    13   ar
     7    13    14   ar
     8    14     9    1
     9     1     9    1
    10     1     2    1
    11     3     2    1
    12     3     4    1
    13     4     5    1
    14     6     5    1
    15     6     7    1
    16     6     8    1
    17     8    21    1
    18    21    22    1
    19    22    23   ar
    20    23    24   ar
    21    24    25   ar
    22    25    26   ar
    23    26    27   ar
    24    14    15   ar
    25    15    10   ar
    26     7     1    1
    27    27    22   ar
    28     8     3    1
    29    16    19    1
    30    16    20    1
@<TRIPOS>MOLECULE
*****
 27 30 0 0 0
SMALL
GASTEIGER

@<TRIPOS>ATOM
      1 C         140.3631  140.2779  165.8570 C.3     1  UNL1        0.1703
      2 C         139.6739  138.9496  165.7542 C.3     1  UNL1        0.0596
      3 C         140.2114  137.8951  164.8328 C.3     1  UNL1        0.0614
      4 C         141.0644  137.1779  163.8288 C.3     1  UNL1        0.0175
      5 C         142.1707  138.1028  163.4156 C.3     1  UNL1        0.0175
      6 C         142.0013  139.3916  164.1642 C.3     1  UNL1        0.0614
      7 C         141.5899  140.5516  165.0384 C.3     1  UNL1        0.0596
      8 N         140.7904  139.2632  165.0400 N.3     1  UNL1       -0.2713
      9 O         139.8256  141.3325  166.7784 O.3     1  UNL1       -0.4629
     10 C         142.0458  142.2256  169.9443 C.ar    1  UNL1        0.1564
     11 C         141.2692  141.5495  171.0350 C.ar    1  UNL1        0.1228
     12 N         140.0114  140.8010  170.7068 N.ar    1  UNL1       -0.2357
     13 C         139.5302  140.7287  169.2880 C.ar    1  UNL1        0.1564
     14 C         140.3068  141.4048  168.1973 C.ar    1  UNL1        0.2447
     15 N         141.5646  142.1533  168.5254 N.ar    1  UNL1       -0.2041
     16 N         143.2945  144.0220  171.3458 N.am    1  UNL1       -0.3240
     17 C         143.3036  142.9741  170.2724 C.2     1  UNL1        0.2622
     18 O         144.5706  142.6748  169.5273 O.2     1  UNL1       -0.2687
     19 H         144.1200  144.5132  171.5611 H       1  UNL1        0.1453
     20 H         142.4629  144.2184  171.8348 H       1  UNL1        0.1453
     21 C         140.2529  140.3177  165.9614 C.3     1  UNL1        0.0991
     22 C         139.6025  141.5461  165.3972 C.ar    1  UNL1       -0.0061
     23 C         138.2179  141.4665  164.8259 C.ar    1  UNL1       -0.0029
     24 C         137.5676  142.6947  164.2617 C.ar    1  UNL1       -0.0003
     25 C         138.3019  144.0027  164.2689 C.ar    1  UNL1       -0.0000
     26 C         139.6866  144.0823  164.8402 C.ar    1  UNL1       -0.0003
     27 C         140.3369  142.8539  165.4044 C.ar    1  UNL1       -0.0029
@<TRIPOS>BOND
     1    16    17   am
     2    17    18    2
     3    17    10    1
     4    10    11   ar
     5    11    12   ar
     6    12    13   ar
     7    13    14   ar
     8    14     9    1
     9     1     9    1
    10     1     2    1
    11     3     2    1
    12     3     4    1
    13     4     5    1
    14     6     5    1
    15     6     7    1
    16     6     8    1
    17     8    21    1
    18    21    22    1
    19    22    23   ar
    20    23    24   ar
    21    24    25   ar
    22    25    26   ar
    23    26    27   ar
    24    14    15   ar
    25    15    10   ar
    26     7     1    1
    27    27    22   ar
    28     8     3    1
    29    16    19    1
    30    16    20    1
@<TRIPOS>MOLECULE
*****
 27 30 0 0 0
SMALL
GASTEIGER

@<TRIPOS>ATOM
      1 C         140.4672  141.6501  166.6169 C.3     1  UNL1        0.1703
      2 C         139.8655  140.3438  167.0426 C.3     1  UNL1        0.0596
      3 C         139.4803  140.1272  168.4760 C.3     1  UNL1        0.0614
      4 C         139.2598  140.3488  169.9431 C.3     1  UNL1        0.0175
      5 C         139.7321  141.7322  170.2790 C.3     1  UNL1        0.0175
      6 C         140.2446  142.3657  169.0196 C.3     1  UNL1        0.0614
      7 C         140.6837  142.7400  167.6246 C.3     1  UNL1        0.0596
      8 N         140.0889  141.3738  167.9053 N.3     1  UNL1       -0.2713
      9 O         140.8526  141.8667  165.1834 O.3     1  UNL1       -0.4629
     10 C         143.1855  139.3315  163.2137 C.ar    1  UNL1        0.1564
     11 C         144.5408  139.8950  163.5225 C.ar    1  UNL1        0.1228
     12 N         144.6667  141.1158  164.3850 N.ar    1  UNL1       -0.2357
     13 C         143.4374  141.7730  164.9386 C.ar    1  UNL1        0.1564
     14 C         142.0820  141.2095  164.6298 C.ar    1  UNL1        0.2447
     15 N         141.9560  139.9888  163.7673 N.ar    1  UNL1       -0.2041
     16 N         141.8200  137.2688  162.4195 N.am    1  UNL1       -0.3240
     17 C         143.0595  138.1108  162.3512 C.2     1  UNL1        0.2622
     18 O         144.1732  137.7319  161.4204 O.2     1  UNL1       -0.2687
     19 H         141.7373  136.4676  161.8534 H       1  UNL1        0.1453
     20 H         141.0891  137.5174  163.0304 H       1  UNL1        0.1453
     21 C         140.4741  141.5903  166.4719 C.3     1  UNL1        0.0991
     22 C         139.5987  142.4161  165.5764 C.ar    1  UNL1       -0.0061
     23 C         139.8527  143.8870  165.4283 C.ar    1  UNL1       -0.0029
     24 C         138.9773  144.7127  164.5329 C.ar    1  UNL1       -0.0003
     25 C         137.8480  144.0676  163.7856 C.ar    1  UNL1       -0.0000
     26 C         137.5940  142.5966  163.9338 C.ar    1  UNL1       -0.0003
     27 C         138.4695  141.7709  164.8292 C.ar    1  UNL1       -0.0029
@<TRIPOS>BOND
     1    16    17   am
     2    17    18    2
     3    17    10    1
     4    10    11   ar
     5    11    12   ar
     6    12    13   ar
     7    13    14   ar
     8    14     9    1
     9     1     9    1
    10     1     2    1
    11     3     2    1
    12     3     4    1
    13     4     5    1
    14     6     5    1
    15     6     7    1
    16     6     8    1
    17     8    21    1
    18    21    22    1
    19    22    23   ar
    20    23    24   ar
    21    24    25   ar
    22    25    26   ar
    23    26    27   ar
    24    14    15   ar
    25    15    10   ar
    26     7     1    1
    27    27    22   ar
    28     8     3    1
    29    16    19    1
    30    16    20    1
@<TRIPOS>MOLECULE
*****
 27 30 0 0 0
SMALL
GASTEIGER

@<TRIPOS>ATOM
      1 C         140.1102  141.1190  166.6322 C.3     1  UNL1        0.1703
      2 C         140.5165  142.3837  167.3290 C.3     1  UNL1        0.0596
      3 C         140.3689  142.5008  168.8171 C.3     1  UNL1        0.0614
      4 C         140.0571  142.1819  170.2492 C.3     1  UNL1        0.0175
      5 C         139.5027  140.7892  170.3038 C.3     1  UNL1        0.0175
      6 C         139.4718  140.2474  168.9054 C.3     1  UNL1        0.0614
      7 C         139.5562  139.9714  167.4236 C.3     1  UNL1        0.0596
      8 N         140.0071  141.3052  167.9866 N.3     1  UNL1       -0.2713
      9 O         140.2578  141.0018  165.1440 O.3     1  UNL1       -0.4629
     10 C         139.2520  144.1174  162.9010 C.ar    1  UNL1        0.1564
     11 C         137.8909  143.6993  162.4290 C.ar    1  UNL1        0.1228
     12 N         137.3189  142.3820  162.8621 N.ar    1  UNL1       -0.2357
     13 C         138.1078  141.4829  163.7671 C.ar    1  UNL1        0.1564
     14 C         139.4688  141.9010  164.2390 C.ar    1  UNL1        0.2447
     15 N         140.0409  143.2182  163.8060 N.ar    1  UNL1       -0.2041
     16 N         141.1080  145.9278  163.0663 N.am    1  UNL1       -0.3240
     17 C         139.8240  145.4346  162.4679 C.2     1  UNL1        0.2622
     18 O         139.1121  146.2587  161.4363 O.2     1  UNL1       -0.2687
     19 H         141.4835  146.7924  162.7821 H       1  UNL1        0.1453
     20 H         141.5753  145.3870  163.7434 H       1  UNL1        0.1453
     21 C         140.1547  141.1881  166.4984 C.3     1  UNL1        0.0991
     22 C         141.2682  140.3679  165.9174 C.ar    1  UNL1       -0.0061
     23 C         142.6401  140.9580  165.7772 C.ar    1  UNL1       -0.0029
     24 C         143.7534  140.1378  165.1962 C.ar    1  UNL1       -0.0003
     25 C         143.4950  138.7276  164.7555 C.ar    1  UNL1       -0.0000
     26 C         142.1230  138.1374  164.8957 C.ar    1  UNL1       -0.0003
     27 C         141.0096  138.9577  165.4767 C.ar    1  UNL1       -0.0029
@<TRIPOS>BOND
     1    16    17   am
     2    17    18    2
     3    17    10    1
     4    10    11   ar
     5    11    12   ar
     6    12    13   ar
     7    13    14   ar
     8    14     9    1
     9     1     9    1
    10     1     2    1
    11     3     2    1
    12     3     4    1
    13     4     5    1
    14     6     5    1
    15     6     7    1
    16     6     8    1
    17     8    21    1
    18    21    22    1
    19    22    23   ar
    20    23    24   ar
    21    24    25   ar
    22    25    26   ar
    23    26    27   ar
    24    14    15   ar
    25    15    10   ar
    26     7     1    1
    27    27    22   ar
    28     8     3    1
    29    16    19    1
    30    16    20    1
@<TRIPOS>MOLECULE
*****
 27 30 0 0 0
SMALL
GASTEIGER

@<TRIPOS>ATOM
      1 C         140.1889  141.2613  166.3803 C.3     1  UNL1        0.1703
      2 C         139.4446  140.1156  166.9994 C.3     1  UNL1        0.0596
      3 C         139.2388  140.0700  168.4845 C.3     1  UNL1        0.0614
      4 C         139.2719  140.4272  169.9410 C.3     1  UNL1        0.0175
      5 C         140.0125  141.7238  170.0834 C.3     1  UNL1        0.0175
      6 C         140.4371  142.1679  168.7150 C.3     1  UNL1        0.0614
      7 C         140.7274  142.3614  167.2462 C.3     1  UNL1        0.0596
      8 N         139.9589  141.1458  167.7268 N.3     1  UNL1       -0.2713
      9 O         140.3947  141.3069  164.8951 O.3     1  UNL1       -0.4629
     10 C         143.9395  140.8093  163.1815 C.ar    1  UNL1        0.1564
     11 C         143.9881  139.3151  163.0594 C.ar    1  UNL1        0.1228
     12 N         142.8388  138.4848  163.5492 N.ar    1  UNL1       -0.2357
     13 C         141.6411  139.1488  164.1610 C.ar    1  UNL1        0.1564
     14 C         141.5925  140.6430  164.2832 C.ar    1  UNL1        0.2447
     15 N         142.7417  141.4732  163.7934 N.ar    1  UNL1       -0.2041
     16 N         146.2958  141.8362  163.5603 N.am    1  UNL1       -0.3240
     17 C         145.0888  141.6395  162.6917 C.2     1  UNL1        0.2622
     18 O         145.0310  142.2731  161.3333 O.2     1  UNL1       -0.2687
     19 H         147.0501  142.3811  163.2388 H       1  UNL1        0.1453
     20 H         146.3337  141.4204  164.4519 H       1  UNL1        0.1453
     21 C         140.1647  141.1914  166.2417 C.3     1  UNL1        0.0991
     22 C         139.3871  142.1648  165.4063 C.ar    1  UNL1       -0.0061
     23 C         138.1792  141.7032  164.6461 C.ar    1  UNL1       -0.0029
     24 C         137.4017  142.6765  163.8108 C.ar    1  UNL1       -0.0003
     25 C         137.8320  144.1115  163.7355 C.ar    1  UNL1       -0.0000
     26 C         139.0400  144.5731  164.4957 C.ar    1  UNL1       -0.0003
     27 C         139.8175  143.5997  165.3311 C.ar    1  UNL1       -0.0029
@<TRIPOS>BOND
     1    16    17   am
     2    17    18    2
     3    17    10    1
     4    10    11   ar
     5    11    12   ar
     6    12    13   ar
     7    13    14   ar
     8    14     9    1
     9     1     9    1
    10     1     2    1
    11     3     2    1
    12     3     4    1
    13     4     5    1
    14     6     5    1
    15     6     7    1
    16     6     8    1
    17     8    21    1
    18    21    22    1
    19    22    23   ar
    20    23    24   ar
    21    24    25   ar
    22    25    26   ar
    23    26    27   ar
    24    14    15   ar
    25    15    10   ar
    26     7     1    1
    27    27    22   ar
    28     8     3    1
    29    16    19    1
    30    16    20    1
@<TRIPOS>MOLECULE
*****
 27 30 0 0 0
SMALL
GASTEIGER

@<TRIPOS>ATOM
      1 C         141.4187  142.3427  165.9158 C.3     1  UNL1        0.1703
      2 C         140.3233  143.2157  165.3790 C.3     1  UNL1        0.0596
      3 C         140.6421  144.2934  164.3856 C.3     1  UNL1        0.0614
      4 C         141.3928  145.1991  163.4551 C.3     1  UNL1        0.0175
      5 C         142.8416  144.8133  163.5013 C.3     1  UNL1        0.0175
      6 C         142.9863  143.6691  164.4605 C.3     1  UNL1        0.0614
      7 C         142.8327  142.5475  165.4592 C.3     1  UNL1        0.0596
      8 N         141.6268  143.3478  165.0070 N.3     1  UNL1       -0.2713
      9 O         141.1000  141.2649  166.9093 O.3     1  UNL1       -0.4629
     10 C         139.4700  138.3160  164.8125 C.ar    1  UNL1        0.1564
     11 C         138.3885  137.8661  165.7495 C.ar    1  UNL1        0.1228
     12 N         138.2108  138.5492  167.0730 N.ar    1  UNL1       -0.2357
     13 C         139.1146  139.6820  167.4596 C.ar    1  UNL1        0.1564
     14 C         140.1961  140.1320  166.5227 C.ar    1  UNL1        0.2447
     15 N         140.3738  139.4490  165.1991 N.ar    1  UNL1       -0.2041
     16 N         138.5385  137.6539  162.4793 N.am    1  UNL1       -0.3240
     17 C         139.6476  137.6330  163.4889 C.2     1  UNL1        0.2622
     18 O         140.9344  136.9289  163.1750 O.2     1  UNL1       -0.2687
     19 H         138.6551  137.2056  161.6105 H       1  UNL1        0.1453
     20 H         137.6940  138.1160  162.6853 H       1  UNL1        0.1453
     21 C         141.3081  142.2701  166.0004 C.3     1  UNL1        0.0991
     22 C         141.6417  142.4637  167.4500 C.ar    1  UNL1       -0.0061
     23 C         140.6240  143.0521  168.3817 C.ar    1  UNL1       -0.0029
     24 C         140.9576  143.2458  169.8312 C.ar    1  UNL1       -0.0003
     25 C         142.3089  142.8510  170.3490 C.ar    1  UNL1       -0.0000
     26 C         143.3266  142.2625  169.4173 C.ar    1  UNL1       -0.0003
     27 C         142.9929  142.0689  167.9678 C.ar    1  UNL1       -0.0029
@<TRIPOS>BOND
     1    16    17   am
     2    17    18    2
     3    17    10    1
     4    10    11   ar
     5    11    12   ar
     6    12    13   ar
     7    13    14   ar
     8    14     9    1
     9     1     9    1
    10     1     2    1
    11     3     2    1
    12     3     4    1
    13     4     5    1
    14     6     5    1
    15     6     7    1
    16     6     8    1
    17     8    21    1
    18    21    22    1
    19    22    23   ar
    20    23    24   ar
    21    24    25   ar
    22    25    26   ar
    23    26    27   ar
    24    14    15   ar
    25    15    10   ar
    26     7     1    1
    27    27    22   ar
    28     8     3    1
    29    16    19    1
    30    16    20    1
@<TRIPOS>MOLECULE
*****
 27 30 0 0 0
SMALL
GASTEIGER

@<TRIPOS>ATOM
      1 C         140.1469  140.8477  165.1445 C.3     1  UNL1        0.1703
      2 C         139.0426  139.9103  165.5341 C.3     1  UNL1        0.0596
      3 C         138.8122  138.6545  164.7467 C.3     1  UNL1        0.0614
      4 C         138.9459  137.5707  163.7184 C.3     1  UNL1        0.0175
      5 C         140.0879  137.9282  162.8140 C.3     1  UNL1        0.0175
      6 C         140.6600  139.2330  163.2833 C.3     1  UNL1        0.0614
      7 C         141.0207  140.5295  163.9676 C.3     1  UNL1        0.0596
      8 N         139.8716  139.6819  164.4778 N.3     1  UNL1       -0.2713
      9 O         140.3773  142.1036  165.9319 O.3     1  UNL1       -0.4629
     10 C         141.2837  141.5648  169.7579 C.ar    1  UNL1        0.1564
     11 C         142.7317  141.9562  169.7640 C.ar    1  UNL1        0.1228
     12 N         143.3949  142.3967  168.4928 N.ar    1  UNL1       -0.2357
     13 C         142.6101  142.4458  167.2155 C.ar    1  UNL1        0.1564
     14 C         141.1621  142.0544  167.2093 C.ar    1  UNL1        0.2447
     15 N         140.4989  141.6139  168.4805 N.ar    1  UNL1       -0.2041
     16 N         140.0177  139.7541  171.1248 N.am    1  UNL1       -0.3240
     17 C         140.6205  141.1243  171.0291 C.2     1  UNL1        0.2622
     18 O         140.5600  142.0541  172.2048 O.2     1  UNL1       -0.2687
     19 H         139.5824  139.4650  171.9592 H       1  UNL1        0.1453
     20 H         140.0573  139.1439  170.3533 H       1  UNL1        0.1453
     21 C         140.1020  140.9376  165.2652 C.3     1  UNL1        0.0991
     22 C         139.7306  142.2682  164.6807 C.ar    1  UNL1       -0.0061
     23 C         138.3025  142.7262  164.7061 C.ar    1  UNL1       -0.0029
     24 C         137.9310  144.0567  164.1217 C.ar    1  UNL1       -0.0003
     25 C         138.9877  144.9293  163.5118 C.ar    1  UNL1       -0.0000
     26 C         140.4160  144.4713  163.4863 C.ar    1  UNL1       -0.0003
     27 C         140.7873  143.1407  164.0708 C.ar    1  UNL1       -0.0029
@<TRIPOS>BOND
     1    16    17   am
     2    17    18    2
     3    17    10    1
     4    10    11   ar
     5    11    12   ar
     6    12    13   ar
     7    13    14   ar
     8    14     9    1
     9     1     9    1
    10     1     2    1
    11     3     2    1
    12     3     4    1
    13     4     5    1
    14     6     5    1
    15     6     7    1
    16     6     8    1
    17     8    21    1
    18    21    22    1
    19    22    23   ar
    20    23    24   ar
    21    24    25   ar
    22    25    26   ar
    23    26    27   ar
    24    14    15   ar
    25    15    10   ar
    26     7     1    1
    27    27    22   ar
    28     8     3    1
    29    16    19    1
    30    16    20    1
