@<TRIPOS>MOLECULE
*****
 44 48 0 0 0
SMALL
GASTEIGER

@<TRIPOS>ATOM
      1 C         141.9112  141.7176  162.4716 C.3     1  UNL1        0.0807
      2 C         142.2298  141.9038  163.9255 C.ar    1  UNL1        0.0375
      3 C         141.1848  141.6224  164.9643 C.ar    1  UNL1        0.0023
      4 C         141.5033  141.8086  166.4182 C.ar    1  UNL1        0.0181
      5 C         140.4584  141.5272  167.4569 C.ar    1  UNL1        0.0082
      6 C         140.7770  141.7134  168.9108 C.ar    1  UNL1        0.0347
      7 BR        139.7321  141.4320  169.9496 Br      1  UNL1       -0.0490
      8 C         142.1404  142.1810  169.3260 C.ar    1  UNL1        0.0082
      9 C         143.1853  142.4624  168.2873 C.ar    1  UNL1        0.0197
     10 C         142.8668  142.2762  166.8334 C.ar    1  UNL1        0.0844
     11 N         143.9117  142.5577  165.7946 N.ar    1  UNL1       -0.2119
     12 C         143.5932  142.3714  164.3407 C.ar    1  UNL1        0.2211
     13 O         144.6381  142.6528  163.3019 O.3     1  UNL1       -0.4563
     14 C         145.7929  141.7120  163.1256 C.3     1  UNL1        0.2542
     15 C         142.3884  140.4922  161.7502 C.ar    1  UNL1        0.0213
     16 C         142.1888  139.1368  162.3611 C.ar    1  UNL1       -0.0007
     17 C         142.6661  137.9113  161.6397 C.ar    1  UNL1        0.0030
     18 C         143.3429  138.0412  160.3073 C.ar    1  UNL1        0.0400
     19 C         143.5424  139.3965  159.6964 C.ar    1  UNL1        0.1721
     20 C         143.0652  140.6220  160.4179 C.ar    1  UNL1        0.1687
     21 O         144.2192  139.5264  158.3641 O.3     1  UNL1       -0.4684
     22 C         143.3983  139.6592  157.1158 C.3     1  UNL1        0.2526
     23 O         143.2647  141.9774  159.8070 O.3     1  UNL1       -0.4687
     24 C         144.6441  142.5578  159.7037 C.3     1  UNL1        0.2526
     25 C         141.1154  142.7569  161.7391 C.3     1  UNL1        0.1167
     26 O         142.2444  143.7320  161.8960 O.3     1  UNL1       -0.3820
     27 H         142.0026  144.5758  161.4832 H       1  UNL1        0.2107
     28 C         138.4121  140.3891  160.0552 C.ar    1  UNL1        0.2272
     29 C         139.5411  141.3641  160.2121 C.ar    1  UNL1        0.0559
     30 C         139.9864  141.7819  161.5822 C.ar    1  UNL1        0.0117
     31 C         139.3026  141.2246  162.7954 C.ar    1  UNL1        0.0559
     32 C         138.1736  140.2495  162.6385 C.ar    1  UNL1        0.2272
     33 N         137.7284  139.8318  161.2684 N.ar    1  UNL1       -0.1767
     34 C         137.6938  141.0086  157.6365 C.3     1  UNL1        0.2542
     35 O         137.9668  139.9713  158.6850 O.3     1  UNL1       -0.4561
     36 O         137.4899  139.6922  163.8518 O.3     1  UNL1       -0.4561
     37 C         138.2467  139.5466  165.1386 C.3     1  UNL1        0.2542
     38 C         140.3196  143.7962  161.0066 C.3     1  UNL1        0.0563
     39 C         139.7559  144.9710  161.7499 C.3     1  UNL1        0.1104
     40 N         139.1340  144.7755  163.1008 N.ar    1  UNL1       -0.3077
     41 C         139.8224  144.9502  164.4220 C.ar    1  UNL1        0.0980
     42 C         138.8284  144.6536  165.5055 C.ar    1  UNL1        0.1193
     43 N         137.5256  144.2956  164.8539 N.ar    1  UNL1       -0.2223
     44 C         137.7145  144.3709  163.3678 C.ar    1  UNL1        0.1786
@<TRIPOS>BOND
     1    34    35    1
     2    35    28    1
     3    28    29   ar
     4    29    30   ar
     5    30    25    1
     6    25    26    1
     7    25    38    1
     8    38    39    1
     9    39    40    1
    10    40    41   ar
    11    41    42   ar
    12    42    43   ar
    13    43    44   ar
    14    25     1    1
    15     1     2    1
    16     2     3   ar
    17     3     4   ar
    18     4     5   ar
    19     5     6   ar
    20     6     7    1
    21     6     8   ar
    22     8     9   ar
    23     9    10   ar
    24    10    11   ar
    25    11    12   ar
    26    12    13    1
    27    13    14    1
    28     1    15    1
    29    15    16   ar
    30    16    17   ar
    31    17    18   ar
    32    18    19   ar
    33    19    21    1
    34    21    22    1
    35    19    20   ar
    36    20    23    1
    37    23    24    1
    38    30    31   ar
    39    31    32   ar
    40    32    36    1
    41    36    37    1
    42    32    33   ar
    43    33    28   ar
    44    44    40   ar
    45    12     2   ar
    46    20    15   ar
    47    10     4   ar
    48    26    27    1
@<TRIPOS>MOLECULE
*****
 44 48 0 0 0
SMALL
GASTEIGER

@<TRIPOS>ATOM
      1 C         141.9280  141.7008  162.4714 C.3     1  UNL1        0.0807
      2 C         142.2397  141.8909  163.9263 C.ar    1  UNL1        0.0375
      3 C         141.1966  141.5923  164.9621 C.ar    1  UNL1        0.0023
      4 C         141.5082  141.7824  166.4169 C.ar    1  UNL1        0.0181
      5 C         140.4650  141.4838  167.4526 C.ar    1  UNL1        0.0082
      6 C         140.7767  141.6739  168.9076 C.ar    1  UNL1        0.0347
      7 BR        139.7336  141.3753  169.9433 Br      1  UNL1       -0.0490
      8 C         142.1315  142.1626  169.3267 C.ar    1  UNL1        0.0082
      9 C         143.1746  142.4612  168.2910 C.ar    1  UNL1        0.0197
     10 C         142.8630  142.2711  166.8362 C.ar    1  UNL1        0.0844
     11 N         143.9061  142.5698  165.8005 N.ar    1  UNL1       -0.2119
     12 C         143.5944  142.3796  164.3455 C.ar    1  UNL1        0.2211
     13 O         144.6376  142.6782  163.3098 O.3     1  UNL1       -0.4563
     14 C         145.7688  141.7189  163.0863 C.3     1  UNL1        0.2542
     15 C         142.4089  140.4735  161.7555 C.ar    1  UNL1        0.0213
     16 C         142.2338  139.1223  162.3828 C.ar    1  UNL1       -0.0007
     17 C         142.7147  137.8950  161.6669 C.ar    1  UNL1        0.0030
     18 C         143.3707  138.0190  160.3236 C.ar    1  UNL1        0.0400
     19 C         143.5458  139.3702  159.6963 C.ar    1  UNL1        0.1721
     20 C         143.0649  140.5975  160.4123 C.ar    1  UNL1        0.1687
     21 O         144.2018  139.4942  158.3531 O.3     1  UNL1       -0.4684
     22 C         143.3616  139.6031  157.1154 C.3     1  UNL1        0.2526
     23 O         143.2400  141.9487  159.7850 O.3     1  UNL1       -0.4687
     24 C         144.6126  142.5361  159.6399 C.3     1  UNL1        0.2526
     25 C         141.1354  142.7380  161.7324 C.3     1  UNL1        0.1167
     26 O         142.2735  143.7054  161.8698 O.3     1  UNL1       -0.3820
     27 H         142.0356  144.5463  161.4488 H       1  UNL1        0.2107
     28 C         138.1952  140.2476  162.6826 C.ar    1  UNL1        0.2272
     29 C         139.3332  141.2150  162.8199 C.ar    1  UNL1        0.0559
     30 C         139.9974  141.7705  161.5951 C.ar    1  UNL1        0.0117
     31 C         139.5235  141.3584  160.2329 C.ar    1  UNL1        0.0559
     32 C         138.3855  140.3909  160.0956 C.ar    1  UNL1        0.2272
     33 N         137.7213  139.8355  161.3204 N.ar    1  UNL1       -0.1767
     34 C         138.3605  139.2658  165.0824 C.3     1  UNL1        0.2542
     35 O         137.5310  139.6921  163.9076 O.3     1  UNL1       -0.4561
     36 O         137.9117  139.9789  158.7333 O.3     1  UNL1       -0.4561
     37 C         138.1567  140.8709  157.5524 C.3     1  UNL1        0.2542
     38 C         140.3429  143.7751  160.9935 C.3     1  UNL1        0.0563
     39 C         139.7780  144.9533  161.7304 C.3     1  UNL1        0.1104
     40 N         139.1507  144.7634  163.0796 N.ar    1  UNL1       -0.3077
     41 C         139.8352  144.9386  164.4028 C.ar    1  UNL1        0.0980
     42 C         138.8362  144.6485  165.4835 C.ar    1  UNL1        0.1193
     43 N         137.5343  144.2940  164.8283 N.ar    1  UNL1       -0.2223
     44 C         137.7287  144.3651  163.3426 C.ar    1  UNL1        0.1786
@<TRIPOS>BOND
     1    34    35    1
     2    35    28    1
     3    28    29   ar
     4    29    30   ar
     5    30    25    1
     6    25    26    1
     7    25    38    1
     8    38    39    1
     9    39    40    1
    10    40    41   ar
    11    41    42   ar
    12    42    43   ar
    13    43    44   ar
    14    25     1    1
    15     1     2    1
    16     2     3   ar
    17     3     4   ar
    18     4     5   ar
    19     5     6   ar
    20     6     7    1
    21     6     8   ar
    22     8     9   ar
    23     9    10   ar
    24    10    11   ar
    25    11    12   ar
    26    12    13    1
    27    13    14    1
    28     1    15    1
    29    15    16   ar
    30    16    17   ar
    31    17    18   ar
    32    18    19   ar
    33    19    21    1
    34    21    22    1
    35    19    20   ar
    36    20    23    1
    37    23    24    1
    38    30    31   ar
    39    31    32   ar
    40    32    36    1
    41    36    37    1
    42    32    33   ar
    43    33    28   ar
    44    44    40   ar
    45    12     2   ar
    46    20    15   ar
    47    10     4   ar
    48    26    27    1
@<TRIPOS>MOLECULE
*****
 44 48 0 0 0
SMALL
GASTEIGER

@<TRIPOS>ATOM
      1 C         140.8033  140.5944  162.9162 C.3     1  UNL1        0.0807
      2 C         140.4711  140.4952  164.3757 C.ar    1  UNL1        0.0375
      3 C         140.7060  141.6688  165.2798 C.ar    1  UNL1        0.0023
      4 C         140.3738  141.5696  166.7391 C.ar    1  UNL1        0.0181
      5 C         140.6086  142.7433  167.6432 C.ar    1  UNL1        0.0082
      6 C         140.2764  142.6440  169.1027 C.ar    1  UNL1        0.0347
      7 BR        140.5113  143.8177  170.0068 Br      1  UNL1       -0.0490
      8 C         139.7094  141.3712  169.6579 C.ar    1  UNL1        0.0082
      9 C         139.4745  140.1976  168.7538 C.ar    1  UNL1        0.0197
     10 C         139.8067  140.2968  167.2944 C.ar    1  UNL1        0.0844
     11 N         139.5719  139.1231  166.3903 N.ar    1  UNL1       -0.2119
     12 C         139.9041  139.2224  164.9309 C.ar    1  UNL1        0.2211
     13 O         139.6692  138.0487  164.0268 O.3     1  UNL1       -0.4563
     14 C         140.6710  136.9338  163.9695 C.3     1  UNL1        0.2542
     15 C         141.9075  139.7587  162.3399 C.ar    1  UNL1        0.0213
     16 C         143.2226  139.6573  163.0543 C.ar    1  UNL1       -0.0007
     17 C         144.3267  138.8215  162.4780 C.ar    1  UNL1        0.0030
     18 C         144.1159  138.0871  161.1871 C.ar    1  UNL1        0.0400
     19 C         142.8009  138.1884  160.4727 C.ar    1  UNL1        0.1721
     20 C         141.6967  139.0242  161.0491 C.ar    1  UNL1        0.1687
     21 O         142.5900  137.4540  159.1819 O.3     1  UNL1       -0.4684
     22 C         142.7403  138.1754  157.8754 C.3     1  UNL1        0.2526
     23 O         140.3816  139.1256  160.3347 O.3     1  UNL1       -0.4687
     24 C         139.3520  138.0476  160.5022 C.3     1  UNL1        0.2526
     25 C         140.0313  141.5295  162.0332 C.3     1  UNL1        0.1167
     26 O         138.7912  140.7155  162.2556 O.3     1  UNL1       -0.3820
     27 H         138.0532  141.1101  161.7651 H       1  UNL1        0.2107
     28 C         143.0542  143.3340  160.2013 C.ar    1  UNL1        0.2272
     29 C         141.8140  142.5201  160.4237 C.ar    1  UNL1        0.0559
     30 C         141.2715  142.3434  161.8109 C.ar    1  UNL1        0.0117
     31 C         141.9692  142.9808  162.9758 C.ar    1  UNL1        0.0559
     32 C         143.2093  143.7948  162.7534 C.ar    1  UNL1        0.2272
     33 N         143.7518  143.9714  161.3662 N.ar    1  UNL1       -0.1767
     34 C         144.6509  142.5774  158.2965 C.3     1  UNL1        0.2542
     35 O         143.5967  143.5106  158.8140 O.3     1  UNL1       -0.4561
     36 O         143.9070  144.4321  163.9184 O.3     1  UNL1       -0.4561
     37 C         144.3265  143.5955  165.0906 C.3     1  UNL1        0.2542
     38 C         139.2593  142.4645  161.1502 C.3     1  UNL1        0.0563
     39 C         138.1576  143.3030  161.7274 C.3     1  UNL1        0.1104
     40 N         138.2516  143.7950  163.1413 N.ar    1  UNL1       -0.3077
     41 C         139.1480  144.8915  163.6355 C.ar    1  UNL1        0.0980
     42 C         138.9162  145.0511  165.1089 C.ar    1  UNL1        0.1193
     43 N         137.8765  144.0532  165.5253 N.ar    1  UNL1       -0.2223
     44 C         137.4658  143.2770  164.3092 C.ar    1  UNL1        0.1786
@<TRIPOS>BOND
     1    34    35    1
     2    35    28    1
     3    28    29   ar
     4    29    30   ar
     5    30    25    1
     6    25    26    1
     7    25    38    1
     8    38    39    1
     9    39    40    1
    10    40    41   ar
    11    41    42   ar
    12    42    43   ar
    13    43    44   ar
    14    25     1    1
    15     1     2    1
    16     2     3   ar
    17     3     4   ar
    18     4     5   ar
    19     5     6   ar
    20     6     7    1
    21     6     8   ar
    22     8     9   ar
    23     9    10   ar
    24    10    11   ar
    25    11    12   ar
    26    12    13    1
    27    13    14    1
    28     1    15    1
    29    15    16   ar
    30    16    17   ar
    31    17    18   ar
    32    18    19   ar
    33    19    21    1
    34    21    22    1
    35    19    20   ar
    36    20    23    1
    37    23    24    1
    38    30    31   ar
    39    31    32   ar
    40    32    36    1
    41    36    37    1
    42    32    33   ar
    43    33    28   ar
    44    44    40   ar
    45    12     2   ar
    46    20    15   ar
    47    10     4   ar
    48    26    27    1
@<TRIPOS>MOLECULE
*****
 44 48 0 0 0
SMALL
GASTEIGER

@<TRIPOS>ATOM
      1 C         141.4820  140.8866  162.4972 C.3     1  UNL1        0.0807
      2 C         141.7743  140.5103  163.9196 C.ar    1  UNL1        0.0375
      3 C         141.7316  141.5545  164.9956 C.ar    1  UNL1        0.0023
      4 C         142.0238  141.1782  166.4179 C.ar    1  UNL1        0.0181
      5 C         141.9811  142.2224  167.4939 C.ar    1  UNL1        0.0082
      6 C         142.2733  141.8460  168.9162 C.ar    1  UNL1        0.0347
      7 BR        142.2306  142.8902  169.9923 Br      1  UNL1       -0.0490
      8 C         142.6084  140.4256  169.2625 C.ar    1  UNL1        0.0082
      9 C         142.6511  139.3814  168.1865 C.ar    1  UNL1        0.0197
     10 C         142.3589  139.7576  166.7642 C.ar    1  UNL1        0.0844
     11 N         142.4016  138.7135  165.6882 N.ar    1  UNL1       -0.2119
     12 C         142.1093  139.0898  164.2658 C.ar    1  UNL1        0.2211
     13 O         142.1521  138.0456  163.1898 O.3     1  UNL1       -0.4563
     14 C         140.9867  137.1218  162.9945 C.3     1  UNL1        0.2542
     15 C         140.1940  140.4599  161.8580 C.ar    1  UNL1        0.0213
     16 C         138.8979  140.6358  162.5923 C.ar    1  UNL1       -0.0007
     17 C         137.6098  140.2091  161.9531 C.ar    1  UNL1        0.0030
     18 C         137.6177  139.6063  160.5795 C.ar    1  UNL1        0.0400
     19 C         138.9138  139.4303  159.8452 C.ar    1  UNL1        0.1721
     20 C         140.2019  139.8571  160.4845 C.ar    1  UNL1        0.1687
     21 O         138.9218  138.8275  158.4717 O.3     1  UNL1       -0.4684
     22 C         139.0633  139.7093  157.2666 C.3     1  UNL1        0.2526
     23 O         141.4980  139.6811  159.7502 O.3     1  UNL1       -0.4687
     24 C         142.1045  138.3157  159.6158 C.3     1  UNL1        0.2526
     25 C         142.4779  141.6898  161.7141 C.3     1  UNL1        0.1167
     26 O         143.4770  140.5786  161.8450 O.3     1  UNL1       -0.3820
     27 H         144.2995  140.8287  161.3958 H       1  UNL1        0.2107
     28 C         139.8913  144.5401  162.6809 C.ar    1  UNL1        0.2272
     29 C         140.8903  143.4289  162.8117 C.ar    1  UNL1        0.0559
     30 C         141.4789  142.8010  161.5833 C.ar    1  UNL1        0.0117
     31 C         141.0684  143.2842  160.2239 C.ar    1  UNL1        0.0559
     32 C         140.0693  144.3954  160.0930 C.ar    1  UNL1        0.2272
     33 N         139.4808  145.0234  161.3215 N.ar    1  UNL1       -0.1767
     34 C         138.3194  144.4033  164.7450 C.3     1  UNL1        0.2542
     35 O         139.3027  145.1681  163.9095 O.3     1  UNL1       -0.4561
     36 O         139.6588  144.8787  158.7336 O.3     1  UNL1       -0.4561
     37 C         140.6021  145.7116  157.9173 C.3     1  UNL1        0.2542
     38 C         143.4738  142.4929  160.9311 C.3     1  UNL1        0.0563
     39 C         144.6719  143.0781  161.6183 C.3     1  UNL1        0.1104
     40 N         144.5548  143.5905  163.0231 N.ar    1  UNL1       -0.3077
     41 C         144.9742  142.8617  164.2653 C.ar    1  UNL1        0.0980
     42 C         144.6764  143.7425  165.4424 C.ar    1  UNL1        0.1193
     43 N         144.0729  145.0157  164.9277 N.ar    1  UNL1       -0.2223
     44 C         143.9978  144.9217  163.4325 C.ar    1  UNL1        0.1786
@<TRIPOS>BOND
     1    34    35    1
     2    35    28    1
     3    28    29   ar
     4    29    30   ar
     5    30    25    1
     6    25    26    1
     7    25    38    1
     8    38    39    1
     9    39    40    1
    10    40    41   ar
    11    41    42   ar
    12    42    43   ar
    13    43    44   ar
    14    25     1    1
    15     1     2    1
    16     2     3   ar
    17     3     4   ar
    18     4     5   ar
    19     5     6   ar
    20     6     7    1
    21     6     8   ar
    22     8     9   ar
    23     9    10   ar
    24    10    11   ar
    25    11    12   ar
    26    12    13    1
    27    13    14    1
    28     1    15    1
    29    15    16   ar
    30    16    17   ar
    31    17    18   ar
    32    18    19   ar
    33    19    21    1
    34    21    22    1
    35    19    20   ar
    36    20    23    1
    37    23    24    1
    38    30    31   ar
    39    31    32   ar
    40    32    36    1
    41    36    37    1
    42    32    33   ar
    43    33    28   ar
    44    44    40   ar
    45    12     2   ar
    46    20    15   ar
    47    10     4   ar
    48    26    27    1
@<TRIPOS>MOLECULE
*****
 44 48 0 0 0
SMALL
GASTEIGER

@<TRIPOS>ATOM
      1 C         140.8841  140.7350  162.7564 C.3     1  UNL1        0.0807
      2 C         140.4573  140.6009  164.1882 C.ar    1  UNL1        0.0375
      3 C         140.9505  141.5794  165.2126 C.ar    1  UNL1        0.0023
      4 C         140.5237  141.4455  166.6443 C.ar    1  UNL1        0.0181
      5 C         141.0168  142.4240  167.6686 C.ar    1  UNL1        0.0082
      6 C         140.5900  142.2899  169.1004 C.ar    1  UNL1        0.0347
      7 BR        141.0832  143.2684  170.1248 Br      1  UNL1       -0.0490
      8 C         139.6700  141.1775  169.5078 C.ar    1  UNL1        0.0082
      9 C         139.1768  140.1990  168.4834 C.ar    1  UNL1        0.0197
     10 C         139.6036  140.3329  167.0517 C.ar    1  UNL1        0.0844
     11 N         139.1105  139.3544  166.0273 N.ar    1  UNL1       -0.2119
     12 C         139.5373  139.4884  164.5956 C.ar    1  UNL1        0.2211
     13 O         139.0441  138.5099  163.5712 O.3     1  UNL1       -0.4563
     14 C         139.7324  137.1877  163.4047 C.3     1  UNL1        0.2542
     15 C         141.8836  139.7771  162.1790 C.ar    1  UNL1        0.0213
     16 C         143.1417  139.4613  162.9322 C.ar    1  UNL1       -0.0007
     17 C         144.1412  138.5034  162.3547 C.ar    1  UNL1        0.0030
     18 C         143.8825  137.8612  161.0240 C.ar    1  UNL1        0.0400
     19 C         142.6243  138.1770  160.2708 C.ar    1  UNL1        0.1721
     20 C         141.6249  139.1350  160.8483 C.ar    1  UNL1        0.1687
     21 O         142.3656  137.5349  158.9401 O.3     1  UNL1       -0.4684
     22 C         142.6826  138.2764  157.6753 C.3     1  UNL1        0.2526
     23 O         140.3667  139.4508  160.0951 O.3     1  UNL1       -0.4687
     24 C         139.2754  138.4265  159.9950 C.3     1  UNL1        0.2526
     25 C         140.3115  141.8269  161.9022 C.3     1  UNL1        0.1167
     26 O         138.9429  141.2339  162.0617 O.3     1  UNL1       -0.3820
     27 H         138.2988  141.7719  161.5752 H       1  UNL1        0.2107
     28 C         143.7321  143.6484  162.7574 C.ar    1  UNL1        0.2272
     29 C         142.3635  143.0555  162.9169 C.ar    1  UNL1        0.0559
     30 C         141.6800  142.4198  161.7427 C.ar    1  UNL1        0.0117
     31 C         142.3651  142.3772  160.4090 C.ar    1  UNL1        0.0559
     32 C         143.7337  142.9701  160.2495 C.ar    1  UNL1        0.2272
     33 N         144.4172  143.6058  161.4237 N.ar    1  UNL1       -0.1767
     34 C         144.4751  143.5627  165.2455 C.3     1  UNL1        0.2542
     35 O         144.4156  144.2840  163.9317 O.3     1  UNL1       -0.4561
     36 O         144.4188  142.9275  158.9157 O.3     1  UNL1       -0.4561
     37 C         143.6078  142.9669  157.6545 C.3     1  UNL1        0.2542
     38 C         139.7388  142.9188  161.0479 C.3     1  UNL1        0.0563
     39 C         139.4791  144.2737  161.6370 C.3     1  UNL1        0.1104
     40 N         138.9468  144.3946  163.0342 N.ar    1  UNL1       -0.3077
     41 C         139.7034  144.9041  164.2249 C.ar    1  UNL1        0.0980
     42 C         138.7887  144.8515  165.4126 C.ar    1  UNL1        0.1193
     43 N         137.4667  144.3096  164.9558 N.ar    1  UNL1       -0.2223
     44 C         137.5644  144.0272  163.4859 C.ar    1  UNL1        0.1786
@<TRIPOS>BOND
     1    34    35    1
     2    35    28    1
     3    28    29   ar
     4    29    30   ar
     5    30    25    1
     6    25    26    1
     7    25    38    1
     8    38    39    1
     9    39    40    1
    10    40    41   ar
    11    41    42   ar
    12    42    43   ar
    13    43    44   ar
    14    25     1    1
    15     1     2    1
    16     2     3   ar
    17     3     4   ar
    18     4     5   ar
    19     5     6   ar
    20     6     7    1
    21     6     8   ar
    22     8     9   ar
    23     9    10   ar
    24    10    11   ar
    25    11    12   ar
    26    12    13    1
    27    13    14    1
    28     1    15    1
    29    15    16   ar
    30    16    17   ar
    31    17    18   ar
    32    18    19   ar
    33    19    21    1
    34    21    22    1
    35    19    20   ar
    36    20    23    1
    37    23    24    1
    38    30    31   ar
    39    31    32   ar
    40    32    36    1
    41    36    37    1
    42    32    33   ar
    43    33    28   ar
    44    44    40   ar
    45    12     2   ar
    46    20    15   ar
    47    10     4   ar
    48    26    27    1
@<TRIPOS>MOLECULE
*****
 44 48 0 0 0
SMALL
GASTEIGER

@<TRIPOS>ATOM
      1 C         141.5481  140.5689  161.1568 C.3     1  UNL1        0.0807
      2 C         141.8788  140.2127  162.5760 C.ar    1  UNL1        0.0375
      3 C         141.6166  141.1973  163.6768 C.ar    1  UNL1        0.0023
      4 C         141.9471  140.8412  165.0959 C.ar    1  UNL1        0.0181
      5 C         141.6849  141.8258  166.1968 C.ar    1  UNL1        0.0082
      6 C         142.0155  141.4697  167.6159 C.ar    1  UNL1        0.0347
      7 BR        141.7533  142.4542  168.7168 Br      1  UNL1       -0.0490
      8 C         142.6083  140.1291  167.9342 C.ar    1  UNL1        0.0082
      9 C         142.8705  139.1445  166.8333 C.ar    1  UNL1        0.0197
     10 C         142.5400  139.5006  165.4142 C.ar    1  UNL1        0.0844
     11 N         142.8022  138.5160  164.3134 N.ar    1  UNL1       -0.2119
     12 C         142.4715  138.8721  162.8942 C.ar    1  UNL1        0.2211
     13 O         142.7337  137.8876  161.7933 O.3     1  UNL1       -0.4563
     14 C         144.1333  137.6695  161.2998 C.3     1  UNL1        0.2542
     15 C         142.6319  141.0273  160.2266 C.ar    1  UNL1        0.0213
     16 C         143.3974  142.2817  160.5274 C.ar    1  UNL1       -0.0007
     17 C         144.4812  142.7402  159.5972 C.ar    1  UNL1        0.0030
     18 C         144.7994  141.9443  158.3662 C.ar    1  UNL1        0.0400
     19 C         144.0339  140.6899  158.0654 C.ar    1  UNL1        0.1721
     20 C         142.9501  140.2314  158.9957 C.ar    1  UNL1        0.1687
     21 O         144.3521  139.8940  156.8345 O.3     1  UNL1       -0.4684
     22 C         144.2718  140.5392  155.4828 C.3     1  UNL1        0.2526
     23 O         142.1845  138.9771  158.6949 O.3     1  UNL1       -0.4687
     24 C         141.2615  138.9268  157.5135 C.3     1  UNL1        0.2526
     25 C         140.1338  140.4665  160.6679 C.3     1  UNL1        0.1167
     26 O         140.1753  138.9793  160.8591 O.3     1  UNL1       -0.3820
     27 H         139.3220  138.5963  160.6022 H       1  UNL1        0.2107
     28 C         140.0432  144.3504  161.4782 C.ar    1  UNL1        0.2272
     29 C         140.0848  142.8632  161.6694 C.ar    1  UNL1        0.0559
     30 C         140.0922  141.9536  160.4767 C.ar    1  UNL1        0.0117
     31 C         140.0580  142.5312  159.0928 C.ar    1  UNL1        0.0559
     32 C         140.0165  144.0184  158.9016 C.ar    1  UNL1        0.2272
     33 N         140.0090  144.9280  160.0943 N.ar    1  UNL1       -0.1767
     34 C         139.4348  144.7957  163.9645 C.3     1  UNL1        0.2542
     35 O         140.0358  145.2600  162.6710 O.3     1  UNL1       -0.4561
     36 O         139.9823  144.5960  157.5177 O.3     1  UNL1       -0.4561
     37 C         140.1906  146.0674  157.3137 C.3     1  UNL1        0.2542
     38 C         138.7194  140.3641  160.1790 C.3     1  UNL1        0.0563
     39 C         137.6154  140.0363  161.1402 C.3     1  UNL1        0.1104
     40 N         137.7585  140.3821  162.5928 N.ar    1  UNL1       -0.3077
     41 C         138.2967  139.4813  163.6647 C.ar    1  UNL1        0.0980
     42 C         138.2594  140.2318  164.9629 C.ar    1  UNL1        0.1193
     43 N         137.6981  141.5965  164.6933 N.ar    1  UNL1       -0.2223
     44 C         137.3886  141.6893  163.2286 C.ar    1  UNL1        0.1786
@<TRIPOS>BOND
     1    34    35    1
     2    35    28    1
     3    28    29   ar
     4    29    30   ar
     5    30    25    1
     6    25    26    1
     7    25    38    1
     8    38    39    1
     9    39    40    1
    10    40    41   ar
    11    41    42   ar
    12    42    43   ar
    13    43    44   ar
    14    25     1    1
    15     1     2    1
    16     2     3   ar
    17     3     4   ar
    18     4     5   ar
    19     5     6   ar
    20     6     7    1
    21     6     8   ar
    22     8     9   ar
    23     9    10   ar
    24    10    11   ar
    25    11    12   ar
    26    12    13    1
    27    13    14    1
    28     1    15    1
    29    15    16   ar
    30    16    17   ar
    31    17    18   ar
    32    18    19   ar
    33    19    21    1
    34    21    22    1
    35    19    20   ar
    36    20    23    1
    37    23    24    1
    38    30    31   ar
    39    31    32   ar
    40    32    36    1
    41    36    37    1
    42    32    33   ar
    43    33    28   ar
    44    44    40   ar
    45    12     2   ar
    46    20    15   ar
    47    10     4   ar
    48    26    27    1
@<TRIPOS>MOLECULE
*****
 44 48 0 0 0
SMALL
GASTEIGER

@<TRIPOS>ATOM
      1 C         140.9789  140.6891  163.5953 C.3     1  UNL1        0.0807
      2 C         140.7324  140.6371  165.0740 C.ar    1  UNL1        0.0375
      3 C         141.5071  141.5321  165.9954 C.ar    1  UNL1        0.0023
      4 C         141.2606  141.4801  167.4741 C.ar    1  UNL1        0.0181
      5 C         142.0352  142.3750  168.3955 C.ar    1  UNL1        0.0082
      6 C         141.7887  142.3231  169.8742 C.ar    1  UNL1        0.0347
      7 BR        142.5634  143.2180  170.7956 Br      1  UNL1       -0.0490
      8 C         140.7675  141.3762  170.4315 C.ar    1  UNL1        0.0082
      9 C         139.9928  140.4813  169.5101 C.ar    1  UNL1        0.0197
     10 C         140.2393  140.5332  168.0314 C.ar    1  UNL1        0.0844
     11 N         139.4646  139.6383  167.1100 N.ar    1  UNL1       -0.2119
     12 C         139.7112  139.6903  165.6313 C.ar    1  UNL1        0.2211
     13 O         138.9365  138.7954  164.7099 O.3     1  UNL1       -0.4563
     14 C         138.7678  137.3424  165.0420 C.3     1  UNL1        0.2542
     15 C         139.9579  141.3059  162.6859 C.ar    1  UNL1        0.0213
     16 C         139.4278  142.6790  162.9753 C.ar    1  UNL1       -0.0007
     17 C         138.4068  143.2958  162.0659 C.ar    1  UNL1        0.0030
     18 C         137.9158  142.5396  160.8671 C.ar    1  UNL1        0.0400
     19 C         138.4458  141.1665  160.5778 C.ar    1  UNL1        0.1721
     20 C         139.4669  140.5497  161.4872 C.ar    1  UNL1        0.1687
     21 O         137.9548  140.4102  159.3791 O.3     1  UNL1       -0.4684
     22 C         138.7526  140.4182  158.1088 C.3     1  UNL1        0.2526
     23 O         139.9969  139.1766  161.1979 O.3     1  UNL1       -0.4687
     24 C         139.0935  137.9845  161.3116 C.3     1  UNL1        0.2526
     25 C         142.2465  140.1243  163.0260 C.3     1  UNL1        0.1167
     26 O         141.7793  138.7387  163.3605 O.3     1  UNL1       -0.3820
     27 H         142.4514  138.0956  163.0855 H       1  UNL1        0.2107
     28 C         143.7575  143.7718  163.4292 C.ar    1  UNL1        0.2272
     29 C         143.2903  142.3862  163.7637 C.ar    1  UNL1        0.0559
     30 C         142.7137  141.5098  162.6915 C.ar    1  UNL1        0.0117
     31 C         142.6044  142.0191  161.2849 C.ar    1  UNL1        0.0559
     32 C         143.0717  143.4047  160.9504 C.ar    1  UNL1        0.2272
     33 N         143.6482  144.2810  162.0226 N.ar    1  UNL1       -0.1767
     34 C         144.8279  144.0411  165.7812 C.3     1  UNL1        0.2542
     35 O         144.3341  144.6481  164.5015 O.3     1  UNL1       -0.4561
     36 O         142.9623  143.9139  159.5437 O.3     1  UNL1       -0.4561
     37 C         143.5293  143.1123  158.4097 C.3     1  UNL1        0.2542
     38 C         143.5141  139.5594  162.4567 C.3     1  UNL1        0.0563
     39 C         143.4731  138.3074  161.6315 C.3     1  UNL1        0.1104
     40 N         143.3199  138.3957  160.1419 N.ar    1  UNL1       -0.3077
     41 C         142.6370  137.3887  159.2646 C.ar    1  UNL1        0.0980
     42 C         142.7177  137.8771  157.8487 C.ar    1  UNL1        0.1193
     43 N         143.4505  139.1859  157.8508 N.ar    1  UNL1       -0.2223
     44 C         143.8227  139.5064  159.2681 C.ar    1  UNL1        0.1786
@<TRIPOS>BOND
     1    34    35    1
     2    35    28    1
     3    28    29   ar
     4    29    30   ar
     5    30    25    1
     6    25    26    1
     7    25    38    1
     8    38    39    1
     9    39    40    1
    10    40    41   ar
    11    41    42   ar
    12    42    43   ar
    13    43    44   ar
    14    25     1    1
    15     1     2    1
    16     2     3   ar
    17     3     4   ar
    18     4     5   ar
    19     5     6   ar
    20     6     7    1
    21     6     8   ar
    22     8     9   ar
    23     9    10   ar
    24    10    11   ar
    25    11    12   ar
    26    12    13    1
    27    13    14    1
    28     1    15    1
    29    15    16   ar
    30    16    17   ar
    31    17    18   ar
    32    18    19   ar
    33    19    21    1
    34    21    22    1
    35    19    20   ar
    36    20    23    1
    37    23    24    1
    38    30    31   ar
    39    31    32   ar
    40    32    36    1
    41    36    37    1
    42    32    33   ar
    43    33    28   ar
    44    44    40   ar
    45    12     2   ar
    46    20    15   ar
    47    10     4   ar
    48    26    27    1
@<TRIPOS>MOLECULE
*****
 44 48 0 0 0
SMALL
GASTEIGER

@<TRIPOS>ATOM
      1 C         141.5599  140.5205  161.2737 C.3     1  UNL1        0.0807
      2 C         141.9042  140.1715  162.6914 C.ar    1  UNL1        0.0375
      3 C         141.6338  141.1537  163.7924 C.ar    1  UNL1        0.0023
      4 C         141.9780  140.8048  165.2100 C.ar    1  UNL1        0.0181
      5 C         141.7076  141.7870  166.3110 C.ar    1  UNL1        0.0082
      6 C         142.0519  141.4381  167.7287 C.ar    1  UNL1        0.0347
      7 BR        141.7815  142.4203  168.8296 Br      1  UNL1       -0.0490
      8 C         142.6664  140.1069  168.0453 C.ar    1  UNL1        0.0082
      9 C         142.9368  139.1247  166.9444 C.ar    1  UNL1        0.0197
     10 C         142.5926  139.4736  165.5267 C.ar    1  UNL1        0.0844
     11 N         142.8629  138.4914  164.4258 N.ar    1  UNL1       -0.2119
     12 C         142.5187  138.8403  163.0081 C.ar    1  UNL1        0.2211
     13 O         142.7891  137.8581  161.9071 O.3     1  UNL1       -0.4563
     14 C         144.1758  137.7150  161.3535 C.3     1  UNL1        0.2542
     15 C         142.6276  141.0122  160.3420 C.ar    1  UNL1        0.0213
     16 C         143.3779  142.2718  160.6591 C.ar    1  UNL1       -0.0007
     17 C         144.4456  142.7636  159.7274 C.ar    1  UNL1        0.0030
     18 C         144.7630  141.9958  158.4784 C.ar    1  UNL1        0.0400
     19 C         144.0127  140.7362  158.1612 C.ar    1  UNL1        0.1721
     20 C         142.9450  140.2445  159.0931 C.ar    1  UNL1        0.1687
     21 O         144.3300  139.9685  156.9124 O.3     1  UNL1       -0.4684
     22 C         145.4090  140.4513  155.9890 C.3     1  UNL1        0.2526
     23 O         142.1947  138.9849  158.7759 O.3     1  UNL1       -0.4687
     24 C         141.2417  138.9510  157.6180 C.3     1  UNL1        0.2526
     25 C         140.1480  140.3776  160.7878 C.3     1  UNL1        0.1167
     26 O         140.2444  138.8890  160.9453 O.3     1  UNL1       -0.3820
     27 H         139.4044  138.4811  160.6830 H       1  UNL1        0.2107
     28 C         139.9071  143.9625  159.1025 C.ar    1  UNL1        0.2272
     29 C         140.0035  142.4739  159.2599 C.ar    1  UNL1        0.0559
     30 C         140.0516  141.8662  160.6304 C.ar    1  UNL1        0.0117
     31 C         140.0033  142.7471  161.8435 C.ar    1  UNL1        0.0559
     32 C         139.9069  144.2357  161.6861 C.ar    1  UNL1        0.2272
     33 N         139.8588  144.8434  160.3155 N.ar    1  UNL1       -0.1767
     34 C         139.3826  143.7549  156.5663 C.3     1  UNL1        0.2542
     35 O         139.8589  144.5702  157.7319 O.3     1  UNL1       -0.4561
     36 O         139.8586  145.1166  162.8992 O.3     1  UNL1       -0.4561
     37 C         139.0478  144.7059  164.0925 C.3     1  UNL1        0.2542
     38 C         138.7361  140.2348  160.3020 C.3     1  UNL1        0.0563
     39 C         137.6453  139.8681  161.2642 C.3     1  UNL1        0.1104
     40 N         137.9032  139.9087  162.7413 N.ar    1  UNL1       -0.3077
     41 C         138.4676  138.7921  163.5688 C.ar    1  UNL1        0.0980
     42 C         138.5553  139.2663  164.9891 C.ar    1  UNL1        0.1193
     43 N         138.0452  140.6760  165.0395 N.ar    1  UNL1       -0.2223
     44 C         137.6422  141.0730  163.6502 C.ar    1  UNL1        0.1786
@<TRIPOS>BOND
     1    34    35    1
     2    35    28    1
     3    28    29   ar
     4    29    30   ar
     5    30    25    1
     6    25    26    1
     7    25    38    1
     8    38    39    1
     9    39    40    1
    10    40    41   ar
    11    41    42   ar
    12    42    43   ar
    13    43    44   ar
    14    25     1    1
    15     1     2    1
    16     2     3   ar
    17     3     4   ar
    18     4     5   ar
    19     5     6   ar
    20     6     7    1
    21     6     8   ar
    22     8     9   ar
    23     9    10   ar
    24    10    11   ar
    25    11    12   ar
    26    12    13    1
    27    13    14    1
    28     1    15    1
    29    15    16   ar
    30    16    17   ar
    31    17    18   ar
    32    18    19   ar
    33    19    21    1
    34    21    22    1
    35    19    20   ar
    36    20    23    1
    37    23    24    1
    38    30    31   ar
    39    31    32   ar
    40    32    36    1
    41    36    37    1
    42    32    33   ar
    43    33    28   ar
    44    44    40   ar
    45    12     2   ar
    46    20    15   ar
    47    10     4   ar
    48    26    27    1
@<TRIPOS>MOLECULE
*****
 44 48 0 0 0
SMALL
GASTEIGER

@<TRIPOS>ATOM
      1 C         141.0964  142.6355  160.6884 C.3     1  UNL1        0.0807
      2 C         140.8942  143.5974  159.5552 C.ar    1  UNL1        0.0375
      3 C         141.5297  143.3310  158.2229 C.ar    1  UNL1        0.0023
      4 C         141.3275  144.2928  157.0898 C.ar    1  UNL1        0.0181
      5 C         141.9631  144.0264  155.7574 C.ar    1  UNL1        0.0082
      6 C         141.7609  144.9882  154.6243 C.ar    1  UNL1        0.0347
      7 BR        142.3964  144.7218  153.2919 Br      1  UNL1       -0.0490
      8 C         140.9232  146.2164  154.8235 C.ar    1  UNL1        0.0082
      9 C         140.2877  146.4828  156.1558 C.ar    1  UNL1        0.0197
     10 C         140.4898  145.5211  157.2889 C.ar    1  UNL1        0.0844
     11 N         139.8543  145.7875  158.6213 N.ar    1  UNL1       -0.2119
     12 C         140.0565  144.8256  159.7544 C.ar    1  UNL1        0.2211
     13 O         139.4209  145.0920  161.0868 O.3     1  UNL1       -0.4563
     14 C         139.8780  146.2549  161.9166 C.3     1  UNL1        0.2542
     15 C         142.0717  142.9584  161.7813 C.ar    1  UNL1        0.0213
     16 C         143.4708  143.3767  161.4385 C.ar    1  UNL1       -0.0007
     17 C         144.4461  143.6996  162.5313 C.ar    1  UNL1        0.0030
     18 C         144.0224  143.6042  163.9671 C.ar    1  UNL1        0.0400
     19 C         142.6232  143.1860  164.3099 C.ar    1  UNL1        0.1721
     20 C         141.6479  142.8631  163.2170 C.ar    1  UNL1        0.1687
     21 O         142.1995  143.0906  165.7456 O.3     1  UNL1       -0.4684
     22 C         142.3188  141.7869  166.4778 C.3     1  UNL1        0.2526
     23 O         140.2488  142.4448  163.5598 O.3     1  UNL1       -0.4687
     24 C         139.3020  143.4298  164.1793 C.3     1  UNL1        0.2526
     25 C         140.3232  141.3508  160.7286 C.3     1  UNL1        0.1167
     26 O         139.0492  142.1230  160.9043 O.3     1  UNL1       -0.3820
     27 H         138.3033  141.5061  160.9667 H       1  UNL1        0.2107
     28 C         143.5300  139.1668  161.5632 C.ar    1  UNL1        0.2272
     29 C         142.2560  139.9390  161.7389 C.ar    1  UNL1        0.0559
     30 C         141.5971  140.5786  160.5530 C.ar    1  UNL1        0.0117
     31 C         142.2121  140.4461  159.1913 C.ar    1  UNL1        0.0559
     32 C         143.4860  139.6739  159.0156 C.ar    1  UNL1        0.2272
     33 N         144.1450  139.0343  160.2016 N.ar    1  UNL1       -0.1767
     34 C         144.4590  139.3354  163.9837 C.3     1  UNL1        0.2542
     35 O         144.1889  138.5271  162.7493 O.3     1  UNL1       -0.4561
     36 O         144.1010  139.5415  157.6538 O.3     1  UNL1       -0.4561
     37 C         144.7815  140.7187  157.0205 C.3     1  UNL1        0.2542
     38 C         139.5500  140.0660  160.7689 C.3     1  UNL1        0.0563
     39 C         138.3573  139.9364  161.6693 C.3     1  UNL1        0.1104
     40 N         138.4994  139.2853  163.0131 N.ar    1  UNL1       -0.3077
     41 C         139.0509  137.9152  163.2752 C.ar    1  UNL1        0.0980
     42 C         139.0072  137.6732  164.7549 C.ar    1  UNL1        0.1193
     43 N         138.4288  138.8937  165.4074 N.ar    1  UNL1       -0.2223
     44 C         138.1149  139.8900  164.3309 C.ar    1  UNL1        0.1786
@<TRIPOS>BOND
     1    34    35    1
     2    35    28    1
     3    28    29   ar
     4    29    30   ar
     5    30    25    1
     6    25    26    1
     7    25    38    1
     8    38    39    1
     9    39    40    1
    10    40    41   ar
    11    41    42   ar
    12    42    43   ar
    13    43    44   ar
    14    25     1    1
    15     1     2    1
    16     2     3   ar
    17     3     4   ar
    18     4     5   ar
    19     5     6   ar
    20     6     7    1
    21     6     8   ar
    22     8     9   ar
    23     9    10   ar
    24    10    11   ar
    25    11    12   ar
    26    12    13    1
    27    13    14    1
    28     1    15    1
    29    15    16   ar
    30    16    17   ar
    31    17    18   ar
    32    18    19   ar
    33    19    21    1
    34    21    22    1
    35    19    20   ar
    36    20    23    1
    37    23    24    1
    38    30    31   ar
    39    31    32   ar
    40    32    36    1
    41    36    37    1
    42    32    33   ar
    43    33    28   ar
    44    44    40   ar
    45    12     2   ar
    46    20    15   ar
    47    10     4   ar
    48    26    27    1
