@<TRIPOS>MOLECULE
*****
 28 31 0 0 0
SMALL
GASTEIGER

@<TRIPOS>ATOM
      1 C         144.2112  140.6075  163.3044 C.2     1  UNL1        0.3270
      2 N         144.4677  139.2636  163.9191 N.2     1  UNL1       -0.0380
      3 C         143.9123  139.2775  165.3125 C.2     1  UNL1        0.2637
      4 C         143.8753  138.2333  166.3886 C.2     1  UNL1        0.2821
      5 N         143.2384  138.5416  167.7113 N.2     1  UNL1       -0.0268
      6 C         142.6386  139.8942  167.9577 C.2     1  UNL1        0.3760
      7 N         141.9481  140.4835  169.1518 N.2     1  UNL1       -0.0306
      8 C         141.5584  141.8919  168.8136 C.2     1  UNL1        0.2361
      9 C         142.0080  142.1731  167.4104 C.2     1  UNL1        0.0583
     10 C         142.6756  140.9384  166.8815 C.2     1  UNL1        0.1203
     11 C         143.3125  140.6300  165.5589 C.3     1  UNL1        0.2596
     12 N         143.4972  141.4521  164.3178 N.pl3   1  UNL1       -0.1887
     13 C         143.0470  142.8697  164.1242 C.3     1  UNL1        0.1619
     14 C         143.9209  144.0877  164.1791 C.3     1  UNL1        0.0480
     15 C         143.0578  145.2890  163.9305 C.3     1  UNL1        0.0200
     16 C         141.6506  144.8136  163.7219 C.3     1  UNL1        0.0583
     17 C         141.6438  143.3184  163.8416 C.3     1  UNL1        0.0623
     18 N         140.4591  145.6812  163.4426 N.3     1  UNL1       -0.2913
     19 H         140.7447  146.3534  162.7306 H       1  UNL1        0.1235
     20 C         139.1774  145.0644  162.9665 C.3     1  UNL1        0.1731
     21 C         138.2008  144.5047  163.9580 C.3     1  UNL1        0.4118
     22 F         137.2241  143.9451  164.9494 F       1  UNL1       -0.1685
     23 F         138.8657  145.2846  165.0532 F       1  UNL1       -0.1685
     24 F         137.5358  143.7248  162.8627 F       1  UNL1       -0.1685
     25 C         143.9563  140.3871  160.7283 C.3     1  UNL1        0.0450
     26 C         144.6003  141.0324  161.9195 C.3     1  UNL1        0.2165
     27 O         145.6334  142.1025  161.7257 O.3     1  UNL1       -0.3737
     28 H         145.9458  142.4107  162.5907 H       1  UNL1        0.2111
@<TRIPOS>BOND
     1    26    25    1
     2    26    27    1
     3    26     1    1
     4     1     2    2
     5     2     3    1
     6     3     4    2
     7     4     5    1
     8     5     6    2
     9     6     7    1
    10     7     8    2
    11     8     9    1
    12     9    10    2
    13    10    11    1
    14    11    12    1
    15    13    12    1
    16    13    14    1
    17    14    15    1
    18    15    16    1
    19    16    18    1
    20    18    20    1
    21    20    21    1
    22    21    22    1
    23    21    23    1
    24    21    24    1
    25    16    17    1
    26    12     1    1
    27    17    13    1
    28    11     3    1
    29    10     6    1
    30    27    28    1
    31    18    19    1
@<TRIPOS>MOLECULE
*****
 28 31 0 0 0
SMALL
GASTEIGER

@<TRIPOS>ATOM
      1 C         140.1017  144.1597  164.5422 C.2     1  UNL1        0.3270
      2 N         141.0373  145.0072  163.7320 N.2     1  UNL1       -0.0380
      3 C         142.3084  144.2355  163.5344 C.2     1  UNL1        0.2637
      4 C         143.5830  144.5677  162.8169 C.2     1  UNL1        0.2821
      5 N         144.7076  143.5755  162.7873 N.2     1  UNL1       -0.0268
      6 C         144.5576  142.2511  163.4754 C.2     1  UNL1        0.3760
      7 N         145.4866  141.0818  163.6153 N.2     1  UNL1       -0.0306
      8 C         144.7860  140.0269  164.4193 C.2     1  UNL1        0.2361
      9 C         143.4241  140.5443  164.7764 C.2     1  UNL1        0.0583
     10 C         143.2829  141.9190  164.1930 C.2     1  UNL1        0.1203
     11 C         142.1583  142.9112  164.2225 C.3     1  UNL1        0.2596
     12 N         140.7945  142.8643  164.8454 N.pl3   1  UNL1       -0.1887
     13 C         140.2238  141.7225  165.6331 C.3     1  UNL1        0.1619
     14 C         139.5278  140.5208  165.0659 C.3     1  UNL1        0.0480
     15 C         139.1227  139.6376  166.2085 C.3     1  UNL1        0.0200
     16 C         139.5682  140.2933  167.4818 C.3     1  UNL1        0.0583
     17 C         140.2487  141.5819  167.1263 C.3     1  UNL1        0.0623
     18 N         139.3683  139.7549  168.8677 N.3     1  UNL1       -0.2913
     19 H         140.0340  138.9912  168.9858 H       1  UNL1        0.1235
     20 C         139.5308  140.6584  170.0539 C.3     1  UNL1        0.1731
     21 C         140.8244  140.6739  170.8132 C.3     1  UNL1        0.4118
     22 F         142.1179  140.6893  171.5725 F       1  UNL1       -0.1685
     23 F         141.1589  139.3160  170.2708 F       1  UNL1       -0.1685
     24 F         140.4898  142.0318  171.3555 F       1  UNL1       -0.1685
     25 C         137.5260  143.8974  164.3266 C.3     1  UNL1        0.0450
     26 C         138.7166  144.5408  164.9735 C.3     1  UNL1        0.2165
     27 O         138.5220  145.5652  166.0518 O.3     1  UNL1       -0.3737
     28 H         139.3868  145.8784  166.3601 H       1  UNL1        0.2111
@<TRIPOS>BOND
     1    26    25    1
     2    26    27    1
     3    26     1    1
     4     1     2    2
     5     2     3    1
     6     3     4    2
     7     4     5    1
     8     5     6    2
     9     6     7    1
    10     7     8    2
    11     8     9    1
    12     9    10    2
    13    10    11    1
    14    11    12    1
    15    13    12    1
    16    13    14    1
    17    14    15    1
    18    15    16    1
    19    16    18    1
    20    18    20    1
    21    20    21    1
    22    21    22    1
    23    21    23    1
    24    21    24    1
    25    16    17    1
    26    12     1    1
    27    17    13    1
    28    11     3    1
    29    10     6    1
    30    27    28    1
    31    18    19    1
@<TRIPOS>MOLECULE
*****
 28 31 0 0 0
SMALL
GASTEIGER

@<TRIPOS>ATOM
      1 C         140.2027  138.3483  163.6273 C.2     1  UNL1        0.3270
      2 N         138.8921  137.9824  164.2585 N.2     1  UNL1       -0.0380
      3 C         138.8718  138.5498  165.6469 C.2     1  UNL1        0.2637
      4 C         137.8391  138.5066  166.7338 C.2     1  UNL1        0.2821
      5 N         138.1044  139.1800  168.0477 N.2     1  UNL1       -0.0268
      6 C         139.4025  139.8966  168.2745 C.2     1  UNL1        0.3760
      7 N         139.9417  140.6464  169.4564 N.2     1  UNL1       -0.0306
      8 C         141.3078  141.1531  169.0999 C.2     1  UNL1        0.2361
      9 C         141.6128  140.7164  167.6976 C.2     1  UNL1        0.0583
     10 C         140.4352  139.9398  167.1875 C.2     1  UNL1        0.1203
     11 C         140.1699  139.2664  165.8737 C.3     1  UNL1        0.2596
     12 N         140.9924  139.1418  164.6255 N.pl3   1  UNL1       -0.1887
     13 C         142.3639  139.7109  164.4130 C.3     1  UNL1        0.1619
     14 C         143.6530  138.9452  164.4582 C.3     1  UNL1        0.0480
     15 C         144.7728  139.9067  164.1910 C.3     1  UNL1        0.0200
     16 C         144.1759  141.2666  163.9807 C.3     1  UNL1        0.0583
     17 C         142.6871  141.1457  164.1178 C.3     1  UNL1        0.0623
     18 N         144.9347  142.5264  163.6850 N.3     1  UNL1       -0.2913
     19 H         145.8095  142.2461  163.2418 H       1  UNL1        0.1235
     20 C         144.3248  143.5815  162.8105 C.3     1  UNL1        0.1731
     21 C         143.4497  144.6407  163.4123 C.3     1  UNL1        0.4118
     22 F         142.5746  145.6999  164.0142 F       1  UNL1       -0.1685
     23 F         144.2953  144.6353  164.6513 F       1  UNL1       -0.1685
     24 F         142.6042  144.6462  162.1734 F       1  UNL1       -0.1685
     25 C         139.9134  138.5313  161.0519 C.3     1  UNL1        0.0450
     26 C         140.6458  137.9844  162.2412 C.3     1  UNL1        0.2165
     27 O         141.8213  137.0737  162.0444 O.3     1  UNL1       -0.3737
     28 H         142.1765  136.8129  162.9085 H       1  UNL1        0.2111
@<TRIPOS>BOND
     1    26    25    1
     2    26    27    1
     3    26     1    1
     4     1     2    2
     5     2     3    1
     6     3     4    2
     7     4     5    1
     8     5     6    2
     9     6     7    1
    10     7     8    2
    11     8     9    1
    12     9    10    2
    13    10    11    1
    14    11    12    1
    15    13    12    1
    16    13    14    1
    17    14    15    1
    18    15    16    1
    19    16    18    1
    20    18    20    1
    21    20    21    1
    22    21    22    1
    23    21    23    1
    24    21    24    1
    25    16    17    1
    26    12     1    1
    27    17    13    1
    28    11     3    1
    29    10     6    1
    30    27    28    1
    31    18    19    1
@<TRIPOS>MOLECULE
*****
 28 31 0 0 0
SMALL
GASTEIGER

@<TRIPOS>ATOM
      1 C         143.1693  139.4793  166.1274 C.2     1  UNL1        0.3270
      2 N         143.2227  138.6593  167.3823 N.2     1  UNL1       -0.0380
      3 C         142.6028  139.4622  168.4874 C.2     1  UNL1        0.2637
      4 C         142.3795  139.1649  169.9405 C.2     1  UNL1        0.2821
      5 N         141.7196  140.1838  170.8218 N.2     1  UNL1       -0.0268
      6 C         141.2831  141.4999  170.2498 C.2     1  UNL1        0.3760
      7 N         140.6121  142.6901  170.8687 N.2     1  UNL1       -0.0306
      8 C         140.4207  143.7231  169.7980 C.2     1  UNL1        0.2361
      9 C         140.9734  143.1712  168.5174 C.2     1  UNL1        0.0583
     10 C         141.5064  141.7972  168.7966 C.2     1  UNL1        0.1203
     11 C         142.1663  140.7784  167.9154 C.3     1  UNL1        0.2596
     12 N         142.5164  140.7889  166.4569 N.pl3   1  UNL1       -0.1887
     13 C         142.2588  141.9119  165.4964 C.3     1  UNL1        0.1619
     14 C         143.1610  143.0844  165.2483 C.3     1  UNL1        0.0480
     15 C         142.5136  143.9567  164.2141 C.3     1  UNL1        0.0200
     16 C         141.2114  143.3235  163.8229 C.3     1  UNL1        0.0583
     17 C         141.0538  142.0598  164.6154 C.3     1  UNL1        0.0623
     18 N         140.2375  143.8599  162.8158 N.3     1  UNL1       -0.2913
     19 H         139.7151  143.0608  162.4567 H       1  UNL1        0.1235
     20 C         139.2265  144.8897  163.2250 C.3     1  UNL1        0.1731
     21 C         138.1840  144.5517  164.2491 C.3     1  UNL1        0.4118
     22 F         137.1415  144.2137  165.2733 F       1  UNL1       -0.1685
     23 F         138.9861  145.2608  165.2997 F       1  UNL1       -0.1685
     24 F         137.3818  143.8426  163.1986 F       1  UNL1       -0.1685
     25 C         145.0497  139.4795  164.3346 C.3     1  UNL1        0.0450
     26 C         143.6792  139.0627  164.7796 C.3     1  UNL1        0.2165
     27 O         142.8186  138.2294  163.8769 O.3     1  UNL1       -0.3737
     28 H         141.9712  138.0497  164.3134 H       1  UNL1        0.2111
@<TRIPOS>BOND
     1    26    25    1
     2    26    27    1
     3    26     1    1
     4     1     2    2
     5     2     3    1
     6     3     4    2
     7     4     5    1
     8     5     6    2
     9     6     7    1
    10     7     8    2
    11     8     9    1
    12     9    10    2
    13    10    11    1
    14    11    12    1
    15    13    12    1
    16    13    14    1
    17    14    15    1
    18    15    16    1
    19    16    18    1
    20    18    20    1
    21    20    21    1
    22    21    22    1
    23    21    23    1
    24    21    24    1
    25    16    17    1
    26    12     1    1
    27    17    13    1
    28    11     3    1
    29    10     6    1
    30    27    28    1
    31    18    19    1
@<TRIPOS>MOLECULE
*****
 28 31 0 0 0
SMALL
GASTEIGER

@<TRIPOS>ATOM
      1 C         139.9105  139.4733  166.2069 C.2     1  UNL1        0.3270
      2 N         138.9243  139.3977  167.3346 N.2     1  UNL1       -0.0380
      3 C         139.4912  140.1563  168.4979 C.2     1  UNL1        0.2637
      4 C         138.9631  140.4216  169.8764 C.2     1  UNL1        0.2821
      5 N         139.7715  141.2314  170.8464 N.2     1  UNL1       -0.0268
      6 C         141.1081  141.7758  170.4376 C.2     1  UNL1        0.3760
      7 N         142.1227  142.6014  171.1718 N.2     1  UNL1       -0.0306
      8 C         143.2780  142.8462  170.2468 C.2     1  UNL1        0.2361
      9 C         142.9773  142.1720  168.9410 C.2     1  UNL1        0.0583
     10 C         141.6363  141.5104  169.0590 C.2     1  UNL1        0.1203
     11 C         140.8278  140.7007  168.0891 C.3     1  UNL1        0.2596
     12 N         141.0869  140.2786  166.6732 N.pl3   1  UNL1       -0.1887
     13 C         142.3081  140.6045  165.8655 C.3     1  UNL1        0.1619
     14 C         143.3490  139.6264  165.4070 C.3     1  UNL1        0.0480
     15 C         144.3869  140.3832  164.6326 C.3     1  UNL1        0.0200
     16 C         143.9876  141.8289  164.6123 C.3     1  UNL1        0.0583
     17 C         142.7028  141.9657  165.3742 C.3     1  UNL1        0.0623
     18 N         144.7410  142.9424  163.9468 N.3     1  UNL1       -0.2913
     19 H         145.5289  142.5151  163.4600 H       1  UNL1        0.1235
     20 C         144.0480  143.8285  162.9546 C.3     1  UNL1        0.1731
     21 C         143.0565  144.8506  163.4261 C.3     1  UNL1        0.4118
     22 F         142.0650  145.8727  163.8977 F       1  UNL1       -0.1685
     23 F         144.0201  145.2966  164.4856 F       1  UNL1       -0.1685
     24 F         142.0929  144.4047  162.3666 F       1  UNL1       -0.1685
     25 C         140.3807  137.5251  164.5535 C.3     1  UNL1        0.0450
     26 C         139.7486  138.8525  164.8510 C.3     1  UNL1        0.2165
     27 O         138.9547  139.5592  163.7926 O.3     1  UNL1       -0.3737
     28 H         138.6180  140.3973  164.1465 H       1  UNL1        0.2111
@<TRIPOS>BOND
     1    26    25    1
     2    26    27    1
     3    26     1    1
     4     1     2    2
     5     2     3    1
     6     3     4    2
     7     4     5    1
     8     5     6    2
     9     6     7    1
    10     7     8    2
    11     8     9    1
    12     9    10    2
    13    10    11    1
    14    11    12    1
    15    13    12    1
    16    13    14    1
    17    14    15    1
    18    15    16    1
    19    16    18    1
    20    18    20    1
    21    20    21    1
    22    21    22    1
    23    21    23    1
    24    21    24    1
    25    16    17    1
    26    12     1    1
    27    17    13    1
    28    11     3    1
    29    10     6    1
    30    27    28    1
    31    18    19    1
@<TRIPOS>MOLECULE
*****
 28 31 0 0 0
SMALL
GASTEIGER

@<TRIPOS>ATOM
      1 C         138.5614  140.0531  164.7287 C.2     1  UNL1        0.3270
      2 N         137.7218  140.5689  163.5978 N.2     1  UNL1       -0.0380
      3 C         138.3072  141.8730  163.1431 C.2     1  UNL1        0.2637
      4 C         137.9015  142.8337  162.0651 C.2     1  UNL1        0.2821
      5 N         138.6971  144.0847  161.8369 N.2     1  UNL1       -0.0268
      6 C         139.8986  144.3749  162.6868 C.2     1  UNL1        0.3760
      7 N         140.8698  145.5180  162.6950 N.2     1  UNL1       -0.0306
      8 C         141.8757  145.2636  163.7782 C.2     1  UNL1        0.2361
      9 C         141.5263  143.9634  164.4394 C.2     1  UNL1        0.0583
     10 C         140.3043  143.4141  163.7649 C.2     1  UNL1        0.1203
     11 C         139.5086  142.1632  163.9931 C.3     1  UNL1        0.2596
     12 N         139.6657  141.0384  164.9730 N.pl3   1  UNL1       -0.1887
     13 C         140.7388  140.9198  166.0144 C.3     1  UNL1        0.1619
     14 C         142.1034  140.3308  165.8112 C.3     1  UNL1        0.0480
     15 C         142.8435  140.4163  167.1130 C.3     1  UNL1        0.0200
     16 C         141.9365  141.0580  168.1207 C.3     1  UNL1        0.0583
     17 C         140.6357  141.3692  167.4418 C.3     1  UNL1        0.0623
     18 N         142.2716  141.3393  169.5556 N.3     1  UNL1       -0.2913
     19 H         143.0614  141.9848  169.5525 H       1  UNL1        0.1235
     20 C         141.2351  141.9275  170.4664 C.3     1  UNL1        0.1731
     21 C         140.7729  143.3400  170.2632 C.3     1  UNL1        0.4118
     22 F         140.3108  144.7525  170.0600 F       1  UNL1       -0.1685
     23 F         139.3473  142.8925  170.3950 F       1  UNL1       -0.1685
     24 F         142.1985  143.7875  170.1314 F       1  UNL1       -0.1685
     25 C         139.0242  137.5165  165.0471 C.3     1  UNL1        0.0450
     26 C         138.3363  138.7762  165.4829 C.3     1  UNL1        0.2165
     27 O         137.4232  138.7590  166.6728 O.3     1  UNL1       -0.3737
     28 H         137.0635  139.6482  166.8173 H       1  UNL1        0.2111
@<TRIPOS>BOND
     1    26    25    1
     2    26    27    1
     3    26     1    1
     4     1     2    2
     5     2     3    1
     6     3     4    2
     7     4     5    1
     8     5     6    2
     9     6     7    1
    10     7     8    2
    11     8     9    1
    12     9    10    2
    13    10    11    1
    14    11    12    1
    15    13    12    1
    16    13    14    1
    17    14    15    1
    18    15    16    1
    19    16    18    1
    20    18    20    1
    21    20    21    1
    22    21    22    1
    23    21    23    1
    24    21    24    1
    25    16    17    1
    26    12     1    1
    27    17    13    1
    28    11     3    1
    29    10     6    1
    30    27    28    1
    31    18    19    1
@<TRIPOS>MOLECULE
*****
 28 31 0 0 0
SMALL
GASTEIGER

@<TRIPOS>ATOM
      1 C         139.2208  141.9002  163.3248 C.2     1  UNL1        0.3270
      2 N         140.1635  142.3232  162.2375 N.2     1  UNL1       -0.0380
      3 C         141.4923  141.6781  162.4990 C.2     1  UNL1        0.2637
      4 C         142.7971  141.7328  161.7613 C.2     1  UNL1        0.2821
      5 N         143.9805  140.9658  162.2725 N.2     1  UNL1       -0.0268
      6 C         143.8589  140.1441  163.5215 C.2     1  UNL1        0.3760
      7 N         144.8452  139.2886  164.2600 N.2     1  UNL1       -0.0306
      8 C         144.1498  138.7052  165.4542 C.2     1  UNL1        0.2361
      9 C         142.7338  139.2001  165.4538 C.2     1  UNL1        0.0583
     10 C         142.5540  140.0894  164.2593 C.2     1  UNL1        0.1203
     11 C         141.3707  140.8564  163.7480 C.3     1  UNL1        0.2596
     12 N         139.9669  140.9937  164.2584 N.pl3   1  UNL1       -0.1887
     13 C         139.4073  140.3393  165.4866 C.3     1  UNL1        0.1619
     14 C         138.4047  139.2238  165.5124 C.3     1  UNL1        0.0480
     15 C         138.1299  138.8806  166.9464 C.3     1  UNL1        0.0200
     16 C         138.9626  139.7839  167.8070 C.3     1  UNL1        0.0583
     17 C         139.7521  140.6854  166.9049 C.3     1  UNL1        0.0623
     18 N         138.9993  139.7853  169.3067 N.3     1  UNL1       -0.2913
     19 H         138.6080  138.8941  169.6117 H       1  UNL1        0.1235
     20 C         140.3056  139.9531  170.0247 C.3     1  UNL1        0.1731
     21 C         140.5612  141.1872  170.8381 C.3     1  UNL1        0.4118
     22 F         140.8167  142.4213  171.6516 F       1  UNL1       -0.1685
     23 F         141.8404  140.5890  171.3438 F       1  UNL1       -0.1685
     24 F         139.2819  141.7854  170.3324 F       1  UNL1       -0.1685
     25 C         137.4394  143.6858  163.9480 C.3     1  UNL1        0.0450
     26 C         137.7843  142.3115  163.4556 C.3     1  UNL1        0.2165
     27 O         136.6925  141.3485  163.0939 O.3     1  UNL1       -0.3737
     28 H         137.0843  140.5124  162.7966 H       1  UNL1        0.2111
@<TRIPOS>BOND
     1    26    25    1
     2    26    27    1
     3    26     1    1
     4     1     2    2
     5     2     3    1
     6     3     4    2
     7     4     5    1
     8     5     6    2
     9     6     7    1
    10     7     8    2
    11     8     9    1
    12     9    10    2
    13    10    11    1
    14    11    12    1
    15    13    12    1
    16    13    14    1
    17    14    15    1
    18    15    16    1
    19    16    18    1
    20    18    20    1
    21    20    21    1
    22    21    22    1
    23    21    23    1
    24    21    24    1
    25    16    17    1
    26    12     1    1
    27    17    13    1
    28    11     3    1
    29    10     6    1
    30    27    28    1
    31    18    19    1
@<TRIPOS>MOLECULE
*****
 28 31 0 0 0
SMALL
GASTEIGER

@<TRIPOS>ATOM
      1 C         143.8505  141.8206  163.1617 C.2     1  UNL1        0.3270
      2 N         143.4733  142.3171  161.7975 N.2     1  UNL1       -0.0380
      3 C         142.1208  142.9586  161.8952 C.2     1  UNL1        0.2637
      4 C         141.2478  143.6209  160.8710 C.2     1  UNL1        0.2821
      5 N         139.9160  144.1832  161.2715 N.2     1  UNL1       -0.0268
      6 C         139.4574  144.0832  162.6962 C.2     1  UNL1        0.3760
      7 N         138.2046  144.5417  163.3818 N.2     1  UNL1       -0.0306
      8 C         138.3034  144.1627  164.8298 C.2     1  UNL1        0.2361
      9 C         139.6174  143.4700  165.0390 C.2     1  UNL1        0.0583
     10 C         140.3306  143.4209  163.7203 C.2     1  UNL1        0.1203
     11 C         141.6623  142.8586  163.3199 C.3     1  UNL1        0.2596
     12 N         142.7313  142.1553  164.1026 N.pl3   1  UNL1       -0.1887
     13 C         142.6885  141.8417  165.5688 C.3     1  UNL1        0.1619
     14 C         142.1098  140.6046  166.1894 C.3     1  UNL1        0.0480
     15 C         142.2806  140.7085  167.6759 C.3     1  UNL1        0.0200
     16 C         142.9648  142.0095  167.9742 C.3     1  UNL1        0.0583
     17 C         143.2169  142.7099  166.6720 C.3     1  UNL1        0.0623
     18 N         143.3324  142.5206  169.3358 N.3     1  UNL1       -0.2913
     19 H         144.1116  143.1662  169.2076 H       1  UNL1        0.1235
     20 C         142.3106  143.2352  170.1696 C.3     1  UNL1        0.1731
     21 C         140.8850  142.7689  170.1715 C.3     1  UNL1        0.4118
     22 F         139.4594  142.3025  170.1734 F       1  UNL1       -0.1685
     23 F         140.4970  143.9517  169.3347 F       1  UNL1       -0.1685
     24 F         141.2731  141.5860  171.0083 F       1  UNL1       -0.1685
     25 C         145.0742  139.7420  164.1269 C.3     1  UNL1        0.0450
     26 C         145.1234  141.1136  163.5218 C.3     1  UNL1        0.2165
     27 O         146.4456  141.7782  163.2767 O.3     1  UNL1       -0.3737
     28 H         146.2999  142.6532  162.8841 H       1  UNL1        0.2111
@<TRIPOS>BOND
     1    26    25    1
     2    26    27    1
     3    26     1    1
     4     1     2    2
     5     2     3    1
     6     3     4    2
     7     4     5    1
     8     5     6    2
     9     6     7    1
    10     7     8    2
    11     8     9    1
    12     9    10    2
    13    10    11    1
    14    11    12    1
    15    13    12    1
    16    13    14    1
    17    14    15    1
    18    15    16    1
    19    16    18    1
    20    18    20    1
    21    20    21    1
    22    21    22    1
    23    21    23    1
    24    21    24    1
    25    16    17    1
    26    12     1    1
    27    17    13    1
    28    11     3    1
    29    10     6    1
    30    27    28    1
    31    18    19    1
@<TRIPOS>MOLECULE
*****
 28 31 0 0 0
SMALL
GASTEIGER

@<TRIPOS>ATOM
      1 C         139.1240  143.2191  163.8999 C.2     1  UNL1        0.3270
      2 N         138.1657  142.6971  162.8706 N.2     1  UNL1       -0.0380
      3 C         138.4677  141.2443  162.6507 C.2     1  UNL1        0.2637
      4 C         137.8481  140.2152  161.7525 C.2     1  UNL1        0.2821
      5 N         138.3733  138.8101  161.7475 N.2     1  UNL1       -0.0268
      6 C         139.5181  138.4343  162.6408 C.2     1  UNL1        0.3760
      7 N         140.2436  137.1384  162.8510 N.2     1  UNL1       -0.0306
      8 C         141.3116  137.3666  163.8792 C.2     1  UNL1        0.2361
      9 C         141.2462  138.8036  164.3045 C.2     1  UNL1        0.0583
     10 C         140.1377  139.4635  163.5391 C.2     1  UNL1        0.1203
     11 C         139.6125  140.8685  163.5440 C.3     1  UNL1        0.2596
     12 N         140.0181  142.0889  164.3161 N.pl3   1  UNL1       -0.1887
     13 C         141.1237  142.1657  165.3268 C.3     1  UNL1        0.1619
     14 C         142.5669  142.4528  165.0349 C.3     1  UNL1        0.0480
     15 C         143.3154  142.4334  166.3346 C.3     1  UNL1        0.0200
     16 C         142.3350  142.1345  167.4297 C.3     1  UNL1        0.0583
     17 C         140.9805  141.9690  166.8070 C.3     1  UNL1        0.0623
     18 N         142.6533  142.0209  168.8913 N.3     1  UNL1       -0.2913
     19 H         143.6681  142.0775  168.9769 H       1  UNL1        0.1235
     20 C         142.0809  143.0104  169.8625 C.3     1  UNL1        0.1731
     21 C         140.6410  142.9133  170.2712 C.3     1  UNL1        0.4118
     22 F         139.2010  142.8161  170.6799 F       1  UNL1       -0.1685
     23 F         140.9608  141.7136  171.1130 F       1  UNL1       -0.1685
     24 F         140.3211  144.1129  169.4295 F       1  UNL1       -0.1685
     25 C         138.4656  144.9811  165.6920 C.3     1  UNL1        0.0450
     26 C         139.1784  144.6244  164.4213 C.3     1  UNL1        0.2165
     27 O         139.9458  145.6732  163.6721 O.3     1  UNL1       -0.3737
     28 H         140.3429  145.2790  162.8798 H       1  UNL1        0.2111
@<TRIPOS>BOND
     1    26    25    1
     2    26    27    1
     3    26     1    1
     4     1     2    2
     5     2     3    1
     6     3     4    2
     7     4     5    1
     8     5     6    2
     9     6     7    1
    10     7     8    2
    11     8     9    1
    12     9    10    2
    13    10    11    1
    14    11    12    1
    15    13    12    1
    16    13    14    1
    17    14    15    1
    18    15    16    1
    19    16    18    1
    20    18    20    1
    21    20    21    1
    22    21    22    1
    23    21    23    1
    24    21    24    1
    25    16    17    1
    26    12     1    1
    27    17    13    1
    28    11     3    1
    29    10     6    1
    30    27    28    1
    31    18    19    1
