@<TRIPOS>MOLECULE
*****
 34 38 0 0 0
SMALL
GASTEIGER

@<TRIPOS>ATOM
      1 N         139.8796  137.8323  164.0829 N.3     1  UNL1       -0.2703
      2 C         139.4167  137.9014  162.6578 C.3     1  UNL1        0.0727
      3 C         140.4112  138.1166  161.5558 C.3     1  UNL1        0.0260
      4 C         141.8687  138.2628  161.8788 C.3     1  UNL1        0.0737
      5 C         142.3316  138.1936  163.3039 C.3     1  UNL1        0.0260
      6 C         141.3371  137.9784  164.4059 C.3     1  UNL1        0.0727
      7 C         143.3503  138.4252  162.0476 C.3     1  UNL1        0.0306
      8 C         143.9536  138.6162  160.6875 C.3     1  UNL1        0.0987
      9 N         142.8448  138.5718  159.6782 N.am    1  UNL1       -0.2570
     10 C         141.5563  138.3533  160.4145 C.2     1  UNL1        0.2286
     11 O         140.1945  138.2445  159.7952 O.2     1  UNL1       -0.2746
     12 C         142.9977  138.7197  158.1935 C.ar    1  UNL1        0.0795
     13 C         143.3490  140.0540  157.6050 C.ar    1  UNL1        0.1352
     14 N         143.5019  140.2020  156.1201 N.ar    1  UNL1       -0.1639
     15 N         143.3035  139.0157  155.2238 N.ar    1  UNL1       -0.2145
     16 C         143.4563  139.1637  153.7389 C.3     1  UNL1        0.1571
     17 C         142.9521  137.6814  155.8123 C.ar    1  UNL1        0.2778
     18 O         142.7537  136.4952  154.9159 O.2     1  UNL1       -0.2655
     19 C         142.7992  137.5335  157.2971 C.ar    1  UNL1        0.0787
     20 C         138.8850  137.6170  165.1850 C.3     1  UNL1        0.1063
     21 C         138.1695  138.7889  165.7890 C.3     1  UNL1        0.1483
     22 O         137.3205  138.6006  167.0111 O.3     1  UNL1       -0.3786
     23 H         136.9326  139.4513  167.2696 H       1  UNL1        0.2108
     24 C         140.0914  140.7806  166.9464 C.3     1  UNL1        0.0306
     25 C         139.2639  141.1449  165.7495 C.ar    1  UNL1       -0.0238
     26 C         138.3030  140.1491  165.1708 C.ar    1  UNL1        0.0015
     27 C         137.4756  140.5134  163.9738 C.ar    1  UNL1       -0.0020
     28 C         137.6090  141.8735  163.3556 C.ar    1  UNL1        0.0060
     29 C         138.5699  142.8693  163.9343 C.ar    1  UNL1        0.0748
     30 C         139.3974  142.5050  165.1313 C.ar    1  UNL1        0.0233
     31 C         140.2540  143.6861  165.4794 C.3     1  UNL1        0.2352
     32 O         139.9560  144.7804  164.4977 O.3     1  UNL1       -0.4404
     33 C         138.9152  144.2755  163.5428 C.2     1  UNL1        0.3413
     34 O         138.3235  145.0423  162.3974 O.2     1  UNL1       -0.2449
@<TRIPOS>BOND
     1    24    25    1
     2    25    26   ar
     3    26    21    1
     4    21    22    1
     5    21    20    1
     6    20     1    1
     7     1     2    1
     8     2     3    1
     9     3     4    1
    10     4     5    1
    11     5     6    1
    12     4     7    1
    13     7     8    1
    14     8     9    1
    15     9    12    1
    16    12    13   ar
    17    13    14   ar
    18    14    15   ar
    19    15    16    1
    20    15    17   ar
    21    17    18    2
    22    17    19   ar
    23     9    10   am
    24    10    11    2
    25    26    27   ar
    26    27    28   ar
    27    28    29   ar
    28    29    30   ar
    29    30    31    1
    30    31    32    1
    31    32    33    1
    32    33    34    2
    33    30    25   ar
    34     6     1    1
    35    19    12   ar
    36    33    29    1
    37    10     4    1
    38    22    23    1
@<TRIPOS>MOLECULE
*****
 34 38 0 0 0
SMALL
GASTEIGER

@<TRIPOS>ATOM
      1 N         138.4490  139.3353  164.7930 N.3     1  UNL1       -0.2703
      2 C         138.0068  140.5997  164.1180 C.3     1  UNL1        0.0727
      3 C         138.0730  140.7150  162.6240 C.3     1  UNL1        0.0260
      4 C         138.5815  139.5659  161.8048 C.3     1  UNL1        0.0737
      5 C         139.0237  138.3014  162.4798 C.3     1  UNL1        0.0260
      6 C         138.9575  138.1862  163.9738 C.3     1  UNL1        0.0727
      7 C         139.0645  138.5063  160.8593 C.3     1  UNL1        0.0306
      8 C         138.9578  139.0466  159.4640 C.3     1  UNL1        0.0987
      9 N         138.4089  140.4401  159.5472 N.am    1  UNL1       -0.2570
     10 C         138.1763  140.7611  160.9939 C.2     1  UNL1        0.2286
     11 O         137.6339  142.0507  161.5348 O.2     1  UNL1       -0.2746
     12 C         138.1399  141.3525  158.3875 C.ar    1  UNL1        0.0795
     13 C         138.9538  142.5998  158.2099 C.ar    1  UNL1        0.1352
     14 N         138.6848  143.5122  157.0501 N.ar    1  UNL1       -0.1639
     15 N         137.6018  143.1772  156.0678 N.ar    1  UNL1       -0.2145
     16 C         137.3327  144.0896  154.9079 C.3     1  UNL1        0.1571
     17 C         136.7878  141.9298  156.2453 C.ar    1  UNL1        0.2778
     18 O         135.7048  141.5948  155.2630 O.2     1  UNL1       -0.2655
     19 C         137.0569  141.0175  157.4052 C.ar    1  UNL1        0.0787
     20 C         138.3828  139.2199  166.2871 C.3     1  UNL1        0.1063
     21 C         139.5461  139.6599  167.1256 C.3     1  UNL1        0.1483
     22 O         139.4270  139.6826  168.6207 O.3     1  UNL1       -0.3786
     23 H         140.2623  139.9893  169.0070 H       1  UNL1        0.2108
     24 C         140.0319  142.5499  166.4837 C.3     1  UNL1        0.0306
     25 C         141.0715  141.5221  166.1480 C.ar    1  UNL1       -0.0238
     26 C         140.8287  140.0771  166.4690 C.ar    1  UNL1        0.0015
     27 C         141.8684  139.0493  166.1333 C.ar    1  UNL1       -0.0020
     28 C         143.1509  139.4664  165.4768 C.ar    1  UNL1        0.0060
     29 C         143.3937  140.9114  165.1558 C.ar    1  UNL1        0.0748
     30 C         142.3540  141.9392  165.4915 C.ar    1  UNL1        0.0233
     31 C         142.8704  143.2793  165.0584 C.3     1  UNL1        0.2352
     32 O         144.2291  143.0798  164.4551 O.3     1  UNL1       -0.4404
     33 C         144.5526  141.6163  164.5154 C.2     1  UNL1        0.3413
     34 O         145.8135  140.9710  164.0218 O.2     1  UNL1       -0.2449
@<TRIPOS>BOND
     1    24    25    1
     2    25    26   ar
     3    26    21    1
     4    21    22    1
     5    21    20    1
     6    20     1    1
     7     1     2    1
     8     2     3    1
     9     3     4    1
    10     4     5    1
    11     5     6    1
    12     4     7    1
    13     7     8    1
    14     8     9    1
    15     9    12    1
    16    12    13   ar
    17    13    14   ar
    18    14    15   ar
    19    15    16    1
    20    15    17   ar
    21    17    18    2
    22    17    19   ar
    23     9    10   am
    24    10    11    2
    25    26    27   ar
    26    27    28   ar
    27    28    29   ar
    28    29    30   ar
    29    30    31    1
    30    31    32    1
    31    32    33    1
    32    33    34    2
    33    30    25   ar
    34     6     1    1
    35    19    12   ar
    36    33    29    1
    37    10     4    1
    38    22    23    1
@<TRIPOS>MOLECULE
*****
 34 38 0 0 0
SMALL
GASTEIGER

@<TRIPOS>ATOM
      1 N         143.2949  138.5900  164.8935 N.3     1  UNL1       -0.2703
      2 C         142.1165  137.9974  164.1793 C.3     1  UNL1        0.0727
      3 C         142.0201  138.0912  162.6854 C.3     1  UNL1        0.0260
      4 C         143.1022  138.7776  161.9056 C.3     1  UNL1        0.0737
      5 C         144.2806  139.3701  162.6198 C.3     1  UNL1        0.0260
      6 C         144.3770  139.2764  164.1137 C.3     1  UNL1        0.0727
      7 C         144.1014  139.4301  160.9969 C.3     1  UNL1        0.0306
      8 C         143.6065  139.2911  159.5876 C.3     1  UNL1        0.0987
      9 N         142.3013  138.5526  159.6255 N.am    1  UNL1       -0.2570
     10 C         141.9897  138.2353  161.0580 C.2     1  UNL1        0.2286
     11 O         140.7783  137.5041  161.5557 O.2     1  UNL1       -0.2746
     12 C         141.4563  138.1945  158.4392 C.ar    1  UNL1        0.0795
     13 C         140.0615  138.7337  158.3217 C.ar    1  UNL1        0.1352
     14 N         139.2164  138.3755  157.1352 N.ar    1  UNL1       -0.1639
     15 N         139.7661  137.4781  156.0663 N.ar    1  UNL1       -0.2145
     16 C         138.9210  137.1199  154.8799 C.3     1  UNL1        0.1571
     17 C         141.1609  136.9389  156.1838 C.ar    1  UNL1        0.2778
     18 O         141.7106  136.0415  155.1149 O.2     1  UNL1       -0.2655
     19 C         142.0059  137.2971  157.3703 C.ar    1  UNL1        0.0787
     20 C         143.3913  138.4962  166.3875 C.3     1  UNL1        0.1063
     21 C         142.6758  139.4939  167.2493 C.3     1  UNL1        0.1483
     22 O         143.0018  139.5935  168.7100 O.3     1  UNL1       -0.3786
     23 H         142.4536  140.2823  169.1174 H       1  UNL1        0.2108
     24 C         143.4662  142.1508  166.1019 C.3     1  UNL1        0.0306
     25 C         142.0295  141.7204  166.0767 C.ar    1  UNL1       -0.0238
     26 C         141.6343  140.3920  166.6503 C.ar    1  UNL1        0.0015
     27 C         140.1976  139.9616  166.6251 C.ar    1  UNL1       -0.0020
     28 C         139.1560  140.8597  166.0262 C.ar    1  UNL1        0.0060
     29 C         139.5512  142.1881  165.4525 C.ar    1  UNL1        0.0748
     30 C         140.9879  142.6184  165.4778 C.ar    1  UNL1        0.0233
     31 C         141.0770  143.9740  164.8417 C.3     1  UNL1        0.2352
     32 O         139.6953  144.3814  164.4233 O.3     1  UNL1       -0.4404
     33 C         138.7524  143.2776  164.8009 C.2     1  UNL1        0.3413
     34 O         137.2707  143.2655  164.5676 O.2     1  UNL1       -0.2449
@<TRIPOS>BOND
     1    24    25    1
     2    25    26   ar
     3    26    21    1
     4    21    22    1
     5    21    20    1
     6    20     1    1
     7     1     2    1
     8     2     3    1
     9     3     4    1
    10     4     5    1
    11     5     6    1
    12     4     7    1
    13     7     8    1
    14     8     9    1
    15     9    12    1
    16    12    13   ar
    17    13    14   ar
    18    14    15   ar
    19    15    16    1
    20    15    17   ar
    21    17    18    2
    22    17    19   ar
    23     9    10   am
    24    10    11    2
    25    26    27   ar
    26    27    28   ar
    27    28    29   ar
    28    29    30   ar
    29    30    31    1
    30    31    32    1
    31    32    33    1
    32    33    34    2
    33    30    25   ar
    34     6     1    1
    35    19    12   ar
    36    33    29    1
    37    10     4    1
    38    22    23    1
@<TRIPOS>MOLECULE
*****
 34 38 0 0 0
SMALL
GASTEIGER

@<TRIPOS>ATOM
      1 N         144.9333  141.5478  163.1642 N.3     1  UNL1       -0.2703
      2 C         144.5850  141.9473  161.7610 C.3     1  UNL1        0.0727
      3 C         143.9759  140.9456  160.8253 C.3     1  UNL1        0.0260
      4 C         143.7150  139.5444  161.2929 C.3     1  UNL1        0.0737
      5 C         144.0632  139.1449  162.6961 C.3     1  UNL1        0.0260
      6 C         144.6724  140.1466  163.6318 C.3     1  UNL1        0.0727
      7 C         143.3978  138.1145  161.6167 C.3     1  UNL1        0.0306
      8 C         142.8028  137.4831  160.3930 C.3     1  UNL1        0.0987
      9 N         142.7524  138.5227  159.3129 N.am    1  UNL1       -0.2570
     10 C         143.3161  139.7966  159.8690 C.2     1  UNL1        0.2286
     11 O         143.4564  141.0949  159.1310 O.2     1  UNL1       -0.2746
     12 C         142.2300  138.3234  157.9210 C.ar    1  UNL1        0.0795
     13 C         143.1589  138.4327  156.7484 C.ar    1  UNL1        0.1352
     14 N         142.6365  138.2334  155.3565 N.ar    1  UNL1       -0.1639
     15 N         141.1850  137.9248  155.1373 N.ar    1  UNL1       -0.2145
     16 C         140.6626  137.7255  153.7454 C.3     1  UNL1        0.1571
     17 C         140.2560  137.8155  156.3099 C.ar    1  UNL1        0.2778
     18 O         138.8045  137.5070  156.0906 O.2     1  UNL1       -0.2655
     19 C         140.7785  138.0149  157.7018 C.ar    1  UNL1        0.0787
     20 C         145.5424  142.5495  164.1000 C.3     1  UNL1        0.1063
     21 C         144.6600  143.4459  164.9170 C.3     1  UNL1        0.1483
     22 O         145.1994  144.1077  166.1504 O.3     1  UNL1       -0.3786
     23 H         144.5046  144.6485  166.5573 H       1  UNL1        0.2108
     24 C         142.4488  141.8458  166.1622 C.3     1  UNL1        0.0306
     25 C         142.1326  142.8806  165.1234 C.ar    1  UNL1       -0.0238
     26 C         143.2381  143.6807  164.5008 C.ar    1  UNL1        0.0015
     27 C         142.9219  144.7155  163.4620 C.ar    1  UNL1       -0.0020
     28 C         141.5001  144.9502  163.0457 C.ar    1  UNL1        0.0060
     29 C         140.3945  144.1502  163.6683 C.ar    1  UNL1        0.0748
     30 C         140.7108  143.1154  164.7071 C.ar    1  UNL1        0.0233
     31 C         139.4207  142.4852  165.1414 C.3     1  UNL1        0.2352
     32 O         138.3071  143.1305  164.3710 O.3     1  UNL1       -0.4404
     33 C         138.9090  144.1595  163.4606 C.2     1  UNL1        0.3413
     34 O         138.1573  145.0428  162.5094 O.2     1  UNL1       -0.2449
@<TRIPOS>BOND
     1    24    25    1
     2    25    26   ar
     3    26    21    1
     4    21    22    1
     5    21    20    1
     6    20     1    1
     7     1     2    1
     8     2     3    1
     9     3     4    1
    10     4     5    1
    11     5     6    1
    12     4     7    1
    13     7     8    1
    14     8     9    1
    15     9    12    1
    16    12    13   ar
    17    13    14   ar
    18    14    15   ar
    19    15    16    1
    20    15    17   ar
    21    17    18    2
    22    17    19   ar
    23     9    10   am
    24    10    11    2
    25    26    27   ar
    26    27    28   ar
    27    28    29   ar
    28    29    30   ar
    29    30    31    1
    30    31    32    1
    31    32    33    1
    32    33    34    2
    33    30    25   ar
    34     6     1    1
    35    19    12   ar
    36    33    29    1
    37    10     4    1
    38    22    23    1
@<TRIPOS>MOLECULE
*****
 34 38 0 0 0
SMALL
GASTEIGER

@<TRIPOS>ATOM
      1 N         138.6522  139.1141  164.5856 N.3     1  UNL1       -0.2703
      2 C         139.7173  138.2664  163.9557 C.3     1  UNL1        0.0727
      3 C         139.9111  138.2881  162.4684 C.3     1  UNL1        0.0260
      4 C         139.0398  139.1575  161.6112 C.3     1  UNL1        0.0737
      5 C         137.9748  140.0052  162.2411 C.3     1  UNL1        0.0260
      6 C         137.7809  139.9835  163.7283 C.3     1  UNL1        0.0727
      7 C         138.2493  139.9723  160.6308 C.3     1  UNL1        0.0306
      8 C         138.7792  139.6866  159.2568 C.3     1  UNL1        0.0987
      9 N         139.8972  138.6951  159.3880 N.am    1  UNL1       -0.2570
     10 C         140.0583  138.3682  160.8431 C.2     1  UNL1        0.2286
     11 O         141.0616  137.4186  161.4275 O.2     1  UNL1       -0.2746
     12 C         140.7111  138.1300  158.2620 C.ar    1  UNL1        0.0795
     13 C         142.2091  138.1526  158.3345 C.ar    1  UNL1        0.1352
     14 N         143.0231  137.5874  157.2084 N.ar    1  UNL1       -0.1639
     15 N         142.3390  136.9995  156.0099 N.ar    1  UNL1       -0.2145
     16 C         143.1529  136.4343  154.8838 C.3     1  UNL1        0.1571
     17 C         140.8408  136.9769  155.9374 C.ar    1  UNL1        0.2778
     18 O         140.1567  136.3891  154.7389 O.2     1  UNL1       -0.2655
     19 C         140.0270  137.5421  157.0635 C.ar    1  UNL1        0.0787
     20 C         138.4583  139.0924  166.0729 C.3     1  UNL1        0.1063
     21 C         139.3311  139.9347  166.9554 C.3     1  UNL1        0.1483
     22 O         139.2839  139.7593  168.4443 O.3     1  UNL1       -0.3786
     23 H         139.9048  140.3762  168.8624 H       1  UNL1        0.2108
     24 C         142.2008  139.2373  166.4276 C.3     1  UNL1        0.0306
     25 C         141.6858  140.6039  166.0850 C.ar    1  UNL1       -0.0238
     26 C         140.2510  140.9526  166.3489 C.ar    1  UNL1        0.0015
     27 C         139.7361  142.3192  166.0063 C.ar    1  UNL1       -0.0020
     28 C         140.6559  143.3370  165.3999 C.ar    1  UNL1        0.0060
     29 C         142.0907  142.9883  165.1360 C.ar    1  UNL1        0.0748
     30 C         142.6057  141.6217  165.4786 C.ar    1  UNL1        0.0233
     31 C         144.0578  141.5669  165.1065 C.3     1  UNL1        0.2352
     32 O         144.4403  142.8995  164.5340 O.3     1  UNL1       -0.4404
     33 C         143.2246  143.7779  164.5522 C.2     1  UNL1        0.3413
     34 O         143.1549  145.1970  164.0711 O.2     1  UNL1       -0.2449
@<TRIPOS>BOND
     1    24    25    1
     2    25    26   ar
     3    26    21    1
     4    21    22    1
     5    21    20    1
     6    20     1    1
     7     1     2    1
     8     2     3    1
     9     3     4    1
    10     4     5    1
    11     5     6    1
    12     4     7    1
    13     7     8    1
    14     8     9    1
    15     9    12    1
    16    12    13   ar
    17    13    14   ar
    18    14    15   ar
    19    15    16    1
    20    15    17   ar
    21    17    18    2
    22    17    19   ar
    23     9    10   am
    24    10    11    2
    25    26    27   ar
    26    27    28   ar
    27    28    29   ar
    28    29    30   ar
    29    30    31    1
    30    31    32    1
    31    32    33    1
    32    33    34    2
    33    30    25   ar
    34     6     1    1
    35    19    12   ar
    36    33    29    1
    37    10     4    1
    38    22    23    1
@<TRIPOS>MOLECULE
*****
 34 38 0 0 0
SMALL
GASTEIGER

@<TRIPOS>ATOM
      1 N         138.1827  140.2592  163.5746 N.3     1  UNL1       -0.2703
      2 C         138.4407  141.6710  163.1384 C.3     1  UNL1        0.0727
      3 C         138.5437  141.9977  161.6781 C.3     1  UNL1        0.0260
      4 C         138.3888  140.9127  160.6540 C.3     1  UNL1        0.0737
      5 C         138.1308  139.5009  161.0902 C.3     1  UNL1        0.0260
      6 C         138.0277  139.1742  162.5505 C.3     1  UNL1        0.0727
      7 C         138.2565  139.9385  159.5210 C.3     1  UNL1        0.0306
      8 C         138.4282  140.6948  158.2370 C.3     1  UNL1        0.0987
      9 N         138.6666  142.1364  158.5764 N.am    1  UNL1       -0.2570
     10 C         138.6423  142.2710  160.0701 C.2     1  UNL1        0.2286
     11 O         138.8372  143.5410  160.8442 O.2     1  UNL1       -0.2746
     12 C         138.8902  143.2480  157.5945 C.ar    1  UNL1        0.0795
     13 C         137.9596  143.4190  156.4306 C.ar    1  UNL1        0.1352
     14 N         138.1831  144.5307  155.4486 N.ar    1  UNL1       -0.1639
     15 N         139.3372  145.4713  155.6306 N.ar    1  UNL1       -0.2145
     16 C         139.5608  146.5830  154.6486 C.3     1  UNL1        0.1571
     17 C         140.2679  145.3003  156.7946 C.ar    1  UNL1        0.2778
     18 O         141.4220  146.2410  156.9765 O.2     1  UNL1       -0.2655
     19 C         140.0443  144.1886  157.7765 C.ar    1  UNL1        0.0787
     20 C         138.0796  139.9324  165.0350 C.3     1  UNL1        0.1063
     21 C         139.2888  139.4568  165.7843 C.3     1  UNL1        0.1483
     22 O         140.1279  138.3457  165.2263 O.3     1  UNL1       -0.3786
     23 H         140.8647  138.1625  165.8300 H       1  UNL1        0.2108
     24 C         141.6133  141.3480  165.9278 C.3     1  UNL1        0.0306
     25 C         140.8213  141.0380  167.1634 C.ar    1  UNL1       -0.0238
     26 C         139.6591  140.0924  167.0916 C.ar    1  UNL1        0.0015
     27 C         138.8671  139.7824  168.3272 C.ar    1  UNL1       -0.0020
     28 C         139.2373  140.4179  169.6345 C.ar    1  UNL1        0.0060
     29 C         140.3995  141.3634  169.7062 C.ar    1  UNL1        0.0748
     30 C         141.1915  141.6735  168.4706 C.ar    1  UNL1        0.0233
     31 C         142.2777  142.6374  168.8461 C.3     1  UNL1        0.2352
     32 O         142.1570  142.9232  170.3136 O.3     1  UNL1       -0.4404
     33 C         140.9962  142.1358  170.8452 C.2     1  UNL1        0.3413
     34 O         140.5163  142.1230  172.2663 O.2     1  UNL1       -0.2449
@<TRIPOS>BOND
     1    24    25    1
     2    25    26   ar
     3    26    21    1
     4    21    22    1
     5    21    20    1
     6    20     1    1
     7     1     2    1
     8     2     3    1
     9     3     4    1
    10     4     5    1
    11     5     6    1
    12     4     7    1
    13     7     8    1
    14     8     9    1
    15     9    12    1
    16    12    13   ar
    17    13    14   ar
    18    14    15   ar
    19    15    16    1
    20    15    17   ar
    21    17    18    2
    22    17    19   ar
    23     9    10   am
    24    10    11    2
    25    26    27   ar
    26    27    28   ar
    27    28    29   ar
    28    29    30   ar
    29    30    31    1
    30    31    32    1
    31    32    33    1
    32    33    34    2
    33    30    25   ar
    34     6     1    1
    35    19    12   ar
    36    33    29    1
    37    10     4    1
    38    22    23    1
@<TRIPOS>MOLECULE
*****
 34 38 0 0 0
SMALL
GASTEIGER

@<TRIPOS>ATOM
      1 N         138.5485  139.1479  164.5047 N.3     1  UNL1       -0.2703
      2 C         138.0028  140.3928  163.8705 C.3     1  UNL1        0.0727
      3 C         138.0873  140.5763  162.3842 C.3     1  UNL1        0.0260
      4 C         138.7175  139.5147  161.5321 C.3     1  UNL1        0.0737
      5 C         139.2632  138.2698  162.1663 C.3     1  UNL1        0.0260
      6 C         139.1787  138.0864  163.6526 C.3     1  UNL1        0.0727
      7 C         139.3164  138.5452  160.5566 C.3     1  UNL1        0.0306
      8 C         139.1869  139.1312  159.1818 C.3     1  UNL1        0.0987
      9 N         138.5080  140.4629  159.3076 N.am    1  UNL1       -0.2570
     10 C         138.2179  140.6999  160.7601 C.2     1  UNL1        0.2286
     11 O         137.5462  141.9097  161.3391 O.2     1  UNL1       -0.2746
     12 C         138.1773  141.3940  158.1792 C.ar    1  UNL1        0.0795
     13 C         138.9765  142.6481  157.9828 C.ar    1  UNL1        0.1352
     14 N         138.6458  143.5793  156.8543 N.ar    1  UNL1       -0.1639
     15 N         137.5159  143.2563  155.9221 N.ar    1  UNL1       -0.2145
     16 C         137.1852  144.1875  154.7935 C.3     1  UNL1        0.1571
     17 C         136.7166  142.0022  156.1184 C.ar    1  UNL1        0.2778
     18 O         135.5867  141.6793  155.1862 O.2     1  UNL1       -0.2655
     19 C         137.0474  141.0711  157.2469 C.ar    1  UNL1        0.0787
     20 C         138.4641  138.9644  165.9911 C.3     1  UNL1        0.1063
     21 C         139.3580  139.7584  166.8968 C.3     1  UNL1        0.1483
     22 O         139.2646  139.5844  168.3837 O.3     1  UNL1       -0.3786
     23 H         139.9067  140.1671  168.8184 H       1  UNL1        0.2108
     24 C         142.0586  138.7970  166.0122 C.3     1  UNL1        0.0306
     25 C         141.6958  140.2458  165.8733 C.ar    1  UNL1       -0.0238
     26 C         140.3455  140.7265  166.3155 C.ar    1  UNL1        0.0015
     27 C         139.9826  142.1753  166.1766 C.ar    1  UNL1       -0.0020
     28 C         140.9700  143.1434  165.5955 C.ar    1  UNL1        0.0060
     29 C         142.3203  142.6626  165.1532 C.ar    1  UNL1        0.0748
     30 C         142.6832  141.2138  165.2921 C.ar    1  UNL1        0.0233
     31 C         144.0789  141.0338  164.7730 C.3     1  UNL1        0.2352
     32 O         144.5787  142.3713  164.3133 O.3     1  UNL1       -0.4404
     33 C         143.4918  143.3779  164.5483 C.2     1  UNL1        0.3413
     34 O         143.5638  144.8428  164.2336 O.2     1  UNL1       -0.2449
@<TRIPOS>BOND
     1    24    25    1
     2    25    26   ar
     3    26    21    1
     4    21    22    1
     5    21    20    1
     6    20     1    1
     7     1     2    1
     8     2     3    1
     9     3     4    1
    10     4     5    1
    11     5     6    1
    12     4     7    1
    13     7     8    1
    14     8     9    1
    15     9    12    1
    16    12    13   ar
    17    13    14   ar
    18    14    15   ar
    19    15    16    1
    20    15    17   ar
    21    17    18    2
    22    17    19   ar
    23     9    10   am
    24    10    11    2
    25    26    27   ar
    26    27    28   ar
    27    28    29   ar
    28    29    30   ar
    29    30    31    1
    30    31    32    1
    31    32    33    1
    32    33    34    2
    33    30    25   ar
    34     6     1    1
    35    19    12   ar
    36    33    29    1
    37    10     4    1
    38    22    23    1
@<TRIPOS>MOLECULE
*****
 34 38 0 0 0
SMALL
GASTEIGER

@<TRIPOS>ATOM
      1 N         144.9825  141.3571  163.3354 N.3     1  UNL1       -0.2703
      2 C         144.6880  141.8189  161.9390 C.3     1  UNL1        0.0727
      3 C         144.0996  140.8651  160.9421 C.3     1  UNL1        0.0260
      4 C         143.8058  139.4494  161.3415 C.3     1  UNL1        0.0737
      5 C         144.1003  138.9876  162.7379 C.3     1  UNL1        0.0260
      6 C         144.6887  139.9415  163.7349 C.3     1  UNL1        0.0727
      7 C         143.4602  138.0118  161.5944 C.3     1  UNL1        0.0306
      8 C         142.9005  137.4395  160.3257 C.3     1  UNL1        0.0987
      9 N         142.9001  138.5235  159.2889 N.am    1  UNL1       -0.2570
     10 C         143.4596  139.7656  159.9166 C.2     1  UNL1        0.2286
     11 O         143.6410  141.0913  159.2387 O.2     1  UNL1       -0.2746
     12 C         142.4238  138.3890  157.8729 C.ar    1  UNL1        0.0795
     13 C         141.0213  137.9368  157.5932 C.ar    1  UNL1        0.1352
     14 N         140.5450  137.8022  156.1771 N.ar    1  UNL1       -0.1639
     15 N         141.4713  138.1199  155.0409 N.ar    1  UNL1       -0.2145
     16 C         140.9950  137.9853  153.6249 C.3     1  UNL1        0.1571
     17 C         142.8740  138.5721  155.3207 C.ar    1  UNL1        0.2778
     18 O         143.8003  138.8898  154.1844 O.2     1  UNL1       -0.2655
     19 C         143.3501  138.7066  156.7367 C.ar    1  UNL1        0.0787
     20 C         145.5710  142.3110  164.3324 C.3     1  UNL1        0.1063
     21 C         144.6722  143.1926  165.1478 C.3     1  UNL1        0.1483
     22 O         145.2518  144.0707  166.2169 O.3     1  UNL1       -0.3786
     23 H         144.5399  144.5715  166.6451 H       1  UNL1        0.2108
     24 C         143.4860  145.1589  163.2173 C.3     1  UNL1        0.0306
     25 C         142.6007  144.1792  163.9289 C.ar    1  UNL1       -0.0238
     26 C         143.1937  143.1960  164.8942 C.ar    1  UNL1        0.0015
     27 C         142.3084  142.2163  165.6058 C.ar    1  UNL1       -0.0020
     28 C         140.8300  142.2198  165.3521 C.ar    1  UNL1        0.0060
     29 C         140.2370  143.2029  164.3869 C.ar    1  UNL1        0.0748
     30 C         141.1223  144.1826  163.6753 C.ar    1  UNL1        0.0233
     31 C         140.2585  145.0271  162.7862 C.3     1  UNL1        0.2352
     32 O         138.8393  144.5693  162.9482 O.3     1  UNL1       -0.4404
     33 C         138.8260  143.4419  163.9375 C.2     1  UNL1        0.3413
     34 O         137.6144  142.6862  164.3969 O.2     1  UNL1       -0.2449
@<TRIPOS>BOND
     1    24    25    1
     2    25    26   ar
     3    26    21    1
     4    21    22    1
     5    21    20    1
     6    20     1    1
     7     1     2    1
     8     2     3    1
     9     3     4    1
    10     4     5    1
    11     5     6    1
    12     4     7    1
    13     7     8    1
    14     8     9    1
    15     9    12    1
    16    12    13   ar
    17    13    14   ar
    18    14    15   ar
    19    15    16    1
    20    15    17   ar
    21    17    18    2
    22    17    19   ar
    23     9    10   am
    24    10    11    2
    25    26    27   ar
    26    27    28   ar
    27    28    29   ar
    28    29    30   ar
    29    30    31    1
    30    31    32    1
    31    32    33    1
    32    33    34    2
    33    30    25   ar
    34     6     1    1
    35    19    12   ar
    36    33    29    1
    37    10     4    1
    38    22    23    1
@<TRIPOS>MOLECULE
*****
 34 38 0 0 0
SMALL
GASTEIGER

@<TRIPOS>ATOM
      1 N         144.4574  142.0565  161.6050 N.3     1  UNL1       -0.2703
      2 C         143.8853  142.1597  160.2222 C.3     1  UNL1        0.0727
      3 C         143.4128  140.9259  159.5120 C.3     1  UNL1        0.0260
      4 C         143.5124  139.5888  160.1845 C.3     1  UNL1        0.0737
      5 C         144.0845  139.4856  161.5673 C.3     1  UNL1        0.0260
      6 C         144.5570  140.7194  162.2775 C.3     1  UNL1        0.0727
      7 C         143.5485  138.1908  160.7271 C.3     1  UNL1        0.0306
      8 C         142.9793  137.2743  159.6848 C.3     1  UNL1        0.0987
      9 N         142.5914  138.1059  158.4982 N.am    1  UNL1       -0.2570
     10 C         142.9209  139.5363  158.8070 C.2     1  UNL1        0.2286
     11 O         142.6981  140.7085  157.8980 O.2     1  UNL1       -0.2746
     12 C         141.9813  137.5966  157.2262 C.ar    1  UNL1        0.0795
     13 C         142.8628  137.1317  156.1051 C.ar    1  UNL1        0.1352
     14 N         142.2525  136.6223  154.8330 N.ar    1  UNL1       -0.1639
     15 N         140.7608  136.5778  154.6820 N.ar    1  UNL1       -0.2145
     16 C         140.1506  136.0684  153.4099 C.3     1  UNL1        0.1571
     17 C         139.8793  137.0427  155.8031 C.ar    1  UNL1        0.2778
     18 O         138.3876  136.9982  155.6521 O.2     1  UNL1       -0.2655
     19 C         140.4896  137.5521  157.0752 C.ar    1  UNL1        0.0787
     20 C         144.9299  143.2903  162.3152 C.3     1  UNL1        0.1063
     21 C         143.9804  144.0707  163.1751 C.3     1  UNL1        0.1483
     22 O         143.7154  145.5170  162.8782 O.3     1  UNL1       -0.3786
     23 H         143.0831  145.8690  163.5241 H       1  UNL1        0.2108
     24 C         141.1049  143.2469  162.9446 C.3     1  UNL1        0.0306
     25 C         141.8582  142.9930  164.2166 C.ar    1  UNL1       -0.0238
     26 C         143.2959  143.4049  164.3319 C.ar    1  UNL1        0.0015
     27 C         144.0491  143.1510  165.6040 C.ar    1  UNL1       -0.0020
     28 C         143.3646  142.4852  166.7608 C.ar    1  UNL1        0.0060
     29 C         141.9269  142.0733  166.6455 C.ar    1  UNL1        0.0748
     30 C         141.1737  142.3272  165.3734 C.ar    1  UNL1        0.0233
     31 C         139.7756  141.8139  165.5522 C.3     1  UNL1        0.2352
     32 O         139.6648  141.2428  166.9348 O.3     1  UNL1       -0.4404
     33 C         140.9944  141.4031  167.6105 C.2     1  UNL1        0.3413
     34 O         141.3322  140.9693  169.0061 O.2     1  UNL1       -0.2449
@<TRIPOS>BOND
     1    24    25    1
     2    25    26   ar
     3    26    21    1
     4    21    22    1
     5    21    20    1
     6    20     1    1
     7     1     2    1
     8     2     3    1
     9     3     4    1
    10     4     5    1
    11     5     6    1
    12     4     7    1
    13     7     8    1
    14     8     9    1
    15     9    12    1
    16    12    13   ar
    17    13    14   ar
    18    14    15   ar
    19    15    16    1
    20    15    17   ar
    21    17    18    2
    22    17    19   ar
    23     9    10   am
    24    10    11    2
    25    26    27   ar
    26    27    28   ar
    27    28    29   ar
    28    29    30   ar
    29    30    31    1
    30    31    32    1
    31    32    33    1
    32    33    34    2
    33    30    25   ar
    34     6     1    1
    35    19    12   ar
    36    33    29    1
    37    10     4    1
    38    22    23    1
