@<TRIPOS>MOLECULE
*****
 26 29 0 0 0
SMALL
GASTEIGER

@<TRIPOS>ATOM
      1 N         138.0961  140.0420  162.9697 N.ar    1  UNL1       -0.3165
      2 C         138.0164  138.8162  162.1088 C.ar    1  UNL1        0.0779
      3 C         139.0401  137.8367  162.6013 C.ar    1  UNL1        0.0392
      4 C         139.7525  138.4571  163.7665 C.ar    1  UNL1        0.0985
      5 N         140.8570  137.9570  164.6496 N.ar    1  UNL1       -0.2423
      6 C         141.3781  138.8199  165.7603 C.ar    1  UNL1        0.0989
      7 C         140.7947  140.1829  165.9880 C.ar    1  UNL1        0.0206
      8 C         139.6901  140.6830  165.1049 C.ar    1  UNL1        0.0203
      9 C         139.1690  139.8201  163.9942 C.ar    1  UNL1        0.0782
     10 C         141.3158  141.0459  167.0988 C.ar    1  UNL1        0.0015
     11 C         142.7821  141.3489  167.1882 C.ar    1  UNL1        0.0000
     12 C         143.3033  142.2119  168.2990 C.ar    1  UNL1       -0.0001
     13 C         142.3581  142.7717  169.3204 C.ar    1  UNL1        0.0039
     14 C         140.8917  142.4686  169.2309 C.ar    1  UNL1        0.0714
     15 C         140.3706  141.6057  168.1201 C.ar    1  UNL1        0.0039
     16 C         139.9464  143.0284  170.2523 C.3     1  UNL1        0.4186
     17 F         139.0012  143.5882  171.2736 F       1  UNL1       -0.1659
     18 F         140.6287  144.3606  170.1535 F       1  UNL1       -0.1659
     19 F         139.2642  141.6962  170.3510 F       1  UNL1       -0.1659
     20 C         137.2512  141.2736  162.8305 C.3     1  UNL1        0.1920
     21 O         138.0314  142.8581  160.9250 O.2     1  UNL1       -0.2728
     22 C         137.8741  142.5643  162.3875 C.2     1  UNL1        0.2487
     23 N         138.3395  143.5613  163.4070 N.am    1  UNL1       -0.2778
     24 C         138.3501  143.6193  164.9059 C.3     1  UNL1        0.0952
     25 C         138.9978  144.9711  164.8489 C.3     1  UNL1        0.0430
     26 C         138.9872  144.9130  163.3500 C.3     1  UNL1        0.0952
@<TRIPOS>BOND
     1    21    22    2
     2    22    20    1
     3    20     1    1
     4     1     2   ar
     5     2     3   ar
     6     3     4   ar
     7     4     5   ar
     8     5     6   ar
     9     6     7   ar
    10     7    10    1
    11    10    11   ar
    12    11    12   ar
    13    12    13   ar
    14    13    14   ar
    15    14    16    1
    16    16    17    1
    17    16    18    1
    18    16    19    1
    19    14    15   ar
    20     7     8   ar
    21     8     9   ar
    22    22    23   am
    23    23    24    1
    24    24    25    1
    25    25    26    1
    26     9     1   ar
    27    26    23    1
    28     9     4   ar
    29    15    10   ar
@<TRIPOS>MOLECULE
*****
 26 29 0 0 0
SMALL
GASTEIGER

@<TRIPOS>ATOM
      1 N         141.6269  144.0649  161.3252 N.ar    1  UNL1       -0.3165
      2 C         141.0706  145.1561  160.4594 C.ar    1  UNL1        0.0779
      3 C         139.7494  145.5748  161.0331 C.ar    1  UNL1        0.0392
      4 C         139.4892  144.7423  162.2534 C.ar    1  UNL1        0.0985
      5 N         138.3455  144.7134  163.2235 N.ar    1  UNL1       -0.2423
      6 C         138.3623  143.7513  164.3742 C.ar    1  UNL1        0.0989
      7 C         139.5227  142.8181  164.5547 C.ar    1  UNL1        0.0206
      8 C         140.6663  142.8470  163.5846 C.ar    1  UNL1        0.0203
      9 C         140.6496  143.8091  162.4340 C.ar    1  UNL1        0.0782
     10 C         139.5394  141.8559  165.7054 C.ar    1  UNL1        0.0015
     11 C         140.2504  142.2180  166.9756 C.ar    1  UNL1        0.0000
     12 C         140.2671  141.2559  168.1263 C.ar    1  UNL1       -0.0001
     13 C         139.5728  139.9317  168.0068 C.ar    1  UNL1        0.0039
     14 C         138.8617  139.5696  166.7366 C.ar    1  UNL1        0.0714
     15 C         138.8450  140.5317  165.5860 C.ar    1  UNL1        0.0039
     16 C         138.1673  138.2453  166.6171 C.3     1  UNL1        0.4186
     17 F         137.4730  136.9211  166.4976 F       1  UNL1       -0.1659
     18 F         139.1002  137.8562  165.5088 F       1  UNL1       -0.1659
     19 F         137.2345  138.6345  167.7254 F       1  UNL1       -0.1659
     20 C         142.9316  143.3541  161.1185 C.3     1  UNL1        0.1920
     21 O         144.5696  144.7752  162.5495 O.2     1  UNL1       -0.2728
     22 C         144.0061  143.4403  162.1617 C.2     1  UNL1        0.2487
     23 N         144.5170  142.1915  162.8171 N.am    1  UNL1       -0.2778
     24 C         144.2096  140.7283  162.6963 C.3     1  UNL1        0.0952
     25 C         145.2395  140.4254  163.7439 C.3     1  UNL1        0.0430
     26 C         145.5470  141.8887  163.8646 C.3     1  UNL1        0.0952
@<TRIPOS>BOND
     1    21    22    2
     2    22    20    1
     3    20     1    1
     4     1     2   ar
     5     2     3   ar
     6     3     4   ar
     7     4     5   ar
     8     5     6   ar
     9     6     7   ar
    10     7    10    1
    11    10    11   ar
    12    11    12   ar
    13    12    13   ar
    14    13    14   ar
    15    14    16    1
    16    16    17    1
    17    16    18    1
    18    16    19    1
    19    14    15   ar
    20     7     8   ar
    21     8     9   ar
    22    22    23   am
    23    23    24    1
    24    24    25    1
    25    25    26    1
    26     9     1   ar
    27    26    23    1
    28     9     4   ar
    29    15    10   ar
@<TRIPOS>MOLECULE
*****
 26 29 0 0 0
SMALL
GASTEIGER

@<TRIPOS>ATOM
      1 N         141.4012  144.3291  161.8732 N.ar    1  UNL1       -0.3165
      2 C         140.5372  145.3304  161.1654 C.ar    1  UNL1        0.0779
      3 C         139.4212  145.7158  162.0906 C.ar    1  UNL1        0.0392
      4 C         139.5955  144.9529  163.3703 C.ar    1  UNL1        0.0985
      5 N         138.7981  144.9278  164.6404 N.ar    1  UNL1       -0.2423
      6 C         139.2244  144.0457  165.7763 C.ar    1  UNL1        0.0989
      7 C         140.4480  143.1886  165.6419 C.ar    1  UNL1        0.0206
      8 C         141.2455  143.2137  164.3717 C.ar    1  UNL1        0.0203
      9 C         140.8192  144.0958  163.2359 C.ar    1  UNL1        0.0782
     10 C         140.8743  142.3065  166.7778 C.ar    1  UNL1        0.0015
     11 C         140.4637  142.6401  168.1814 C.ar    1  UNL1        0.0000
     12 C         140.8900  141.7579  169.3173 C.ar    1  UNL1       -0.0001
     13 C         141.7267  140.5422  169.0495 C.ar    1  UNL1        0.0039
     14 C         142.1373  140.2085  167.6458 C.ar    1  UNL1        0.0714
     15 C         141.7110  141.0907  166.5100 C.ar    1  UNL1        0.0039
     16 C         142.9740  138.9928  167.3781 C.3     1  UNL1        0.4186
     17 F         143.8108  137.7770  167.1103 F       1  UNL1       -0.1659
     18 F         142.8855  138.6128  168.8264 F       1  UNL1       -0.1659
     19 F         143.0626  139.3727  165.9297 F       1  UNL1       -0.1659
     20 C         142.6312  143.6758  161.3161 C.3     1  UNL1        0.1920
     21 O         144.6610  144.9085  162.3701 O.2     1  UNL1       -0.2728
     22 C         143.8944  143.6428  162.1245 C.2     1  UNL1        0.2487
     23 N         144.3908  142.3440  162.6873 N.am    1  UNL1       -0.2778
     24 C         143.9133  140.9224  162.6550 C.3     1  UNL1        0.0952
     25 C         145.0930  140.5073  163.4832 C.3     1  UNL1        0.0430
     26 C         145.5706  141.9290  163.5155 C.3     1  UNL1        0.0952
@<TRIPOS>BOND
     1    21    22    2
     2    22    20    1
     3    20     1    1
     4     1     2   ar
     5     2     3   ar
     6     3     4   ar
     7     4     5   ar
     8     5     6   ar
     9     6     7   ar
    10     7    10    1
    11    10    11   ar
    12    11    12   ar
    13    12    13   ar
    14    13    14   ar
    15    14    16    1
    16    16    17    1
    17    16    18    1
    18    16    19    1
    19    14    15   ar
    20     7     8   ar
    21     8     9   ar
    22    22    23   am
    23    23    24    1
    24    24    25    1
    25    25    26    1
    26     9     1   ar
    27    26    23    1
    28     9     4   ar
    29    15    10   ar
@<TRIPOS>MOLECULE
*****
 26 29 0 0 0
SMALL
GASTEIGER

@<TRIPOS>ATOM
      1 N         138.0351  141.4482  162.5534 N.ar    1  UNL1       -0.3165
      2 C         137.6541  140.5166  161.4412 C.ar    1  UNL1        0.0779
      3 C         137.8745  139.1115  161.9176 C.ar    1  UNL1        0.0392
      4 C         138.3917  139.1746  163.3242 C.ar    1  UNL1        0.0985
      5 N         138.7851  138.1036  164.2979 N.ar    1  UNL1       -0.2423
      6 C         139.2778  138.4769  165.6646 C.ar    1  UNL1        0.0989
      7 C         139.3770  139.9211  166.0576 C.ar    1  UNL1        0.0206
      8 C         138.9836  140.9920  165.0839 C.ar    1  UNL1        0.0203
      9 C         138.4909  140.6188  163.7171 C.ar    1  UNL1        0.0782
     10 C         139.8697  140.2943  167.4244 C.ar    1  UNL1        0.0015
     11 C         139.0259  140.0056  168.6305 C.ar    1  UNL1        0.0000
     12 C         139.5186  140.3788  169.9973 C.ar    1  UNL1       -0.0001
     13 C         140.8550  141.0407  170.1579 C.ar    1  UNL1        0.0039
     14 C         141.6988  141.3294  168.9517 C.ar    1  UNL1        0.0714
     15 C         141.2061  140.9562  167.5850 C.ar    1  UNL1        0.0039
     16 C         143.0353  141.9913  169.1123 C.3     1  UNL1        0.4186
     17 F         144.3717  142.6531  169.2730 F       1  UNL1       -0.1659
     18 F         142.8155  142.0754  170.5938 F       1  UNL1       -0.1659
     19 F         143.2550  141.9071  167.6309 F       1  UNL1       -0.1659
     20 C         137.9713  142.9462  162.5096 C.3     1  UNL1        0.1920
     21 O         139.0821  143.9222  160.3733 O.2     1  UNL1       -0.2728
     22 C         139.0766  143.7253  161.8603 C.2     1  UNL1        0.2487
     23 N         140.1764  144.3073  162.6980 N.am    1  UNL1       -0.2778
     24 C         140.5006  144.3204  164.1625 C.3     1  UNL1        0.0952
     25 C         141.7317  145.1304  163.8827 C.3     1  UNL1        0.0430
     26 C         141.4075  145.1173  162.4181 C.3     1  UNL1        0.0952
@<TRIPOS>BOND
     1    21    22    2
     2    22    20    1
     3    20     1    1
     4     1     2   ar
     5     2     3   ar
     6     3     4   ar
     7     4     5   ar
     8     5     6   ar
     9     6     7   ar
    10     7    10    1
    11    10    11   ar
    12    11    12   ar
    13    12    13   ar
    14    13    14   ar
    15    14    16    1
    16    16    17    1
    17    16    18    1
    18    16    19    1
    19    14    15   ar
    20     7     8   ar
    21     8     9   ar
    22    22    23   am
    23    23    24    1
    24    24    25    1
    25    25    26    1
    26     9     1   ar
    27    26    23    1
    28     9     4   ar
    29    15    10   ar
@<TRIPOS>MOLECULE
*****
 26 29 0 0 0
SMALL
GASTEIGER

@<TRIPOS>ATOM
      1 N         141.7407  143.9045  161.0590 N.ar    1  UNL1       -0.3165
      2 C         141.2813  145.0194  160.1667 C.ar    1  UNL1        0.0779
      3 C         139.8945  145.4074  160.5863 C.ar    1  UNL1        0.0392
      4 C         139.4967  144.5324  161.7380 C.ar    1  UNL1        0.0985
      5 N         138.2429  144.4614  162.5583 N.ar    1  UNL1       -0.2423
      6 C         138.1302  143.4616  163.6708 C.ar    1  UNL1        0.0989
      7 C         139.2712  142.5328  163.9629 C.ar    1  UNL1        0.0206
      8 C         140.5250  142.6038  163.1426 C.ar    1  UNL1        0.0203
      9 C         140.6377  143.6036  162.0301 C.ar    1  UNL1        0.0782
     10 C         139.1584  141.5330  165.0755 C.ar    1  UNL1        0.0015
     11 C         138.2490  140.3490  164.9305 C.ar    1  UNL1        0.0000
     12 C         138.1362  139.3492  166.0430 C.ar    1  UNL1       -0.0001
     13 C         138.9329  139.5334  167.3005 C.ar    1  UNL1        0.0039
     14 C         139.8424  140.7174  167.4455 C.ar    1  UNL1        0.0714
     15 C         139.9552  141.7171  166.3329 C.ar    1  UNL1        0.0039
     16 C         140.6392  140.9016  168.7030 C.3     1  UNL1        0.4186
     17 F         141.4359  141.0858  169.9604 F       1  UNL1       -0.1659
     18 F         139.9667  142.2221  168.9356 F       1  UNL1       -0.1659
     19 F         141.3116  139.5811  168.4703 F       1  UNL1       -0.1659
     20 C         143.0697  143.2122  160.9921 C.3     1  UNL1        0.1920
     21 O         144.5214  144.7233  162.5281 O.2     1  UNL1       -0.2728
     22 C         144.0498  143.3597  162.1181 C.2     1  UNL1        0.2487
     23 N         144.5582  142.1435  162.8340 N.am    1  UNL1       -0.2778
     24 C         144.3250  140.6667  162.7132 C.3     1  UNL1        0.0952
     25 C         145.2771  140.4236  163.8464 C.3     1  UNL1        0.0430
     26 C         145.5103  141.9006  163.9672 C.3     1  UNL1        0.0952
@<TRIPOS>BOND
     1    21    22    2
     2    22    20    1
     3    20     1    1
     4     1     2   ar
     5     2     3   ar
     6     3     4   ar
     7     4     5   ar
     8     5     6   ar
     9     6     7   ar
    10     7    10    1
    11    10    11   ar
    12    11    12   ar
    13    12    13   ar
    14    13    14   ar
    15    14    16    1
    16    16    17    1
    17    16    18    1
    18    16    19    1
    19    14    15   ar
    20     7     8   ar
    21     8     9   ar
    22    22    23   am
    23    23    24    1
    24    24    25    1
    25    25    26    1
    26     9     1   ar
    27    26    23    1
    28     9     4   ar
    29    15    10   ar
@<TRIPOS>MOLECULE
*****
 26 29 0 0 0
SMALL
GASTEIGER

@<TRIPOS>ATOM
      1 N         142.5473  143.9327  162.9842 N.ar    1  UNL1       -0.3165
      2 C         143.2606  143.6568  161.6938 C.ar    1  UNL1        0.0779
      3 C         143.9380  142.3239  161.8146 C.ar    1  UNL1        0.0392
      4 C         143.6434  141.7762  163.1796 C.ar    1  UNL1        0.0985
      5 N         144.0468  140.5005  163.8576 N.ar    1  UNL1       -0.2423
      6 C         143.5906  140.2191  165.2586 C.ar    1  UNL1        0.0989
      7 C         142.7310  141.2134  165.9814 C.ar    1  UNL1        0.0206
      8 C         142.3277  142.4891  165.3033 C.ar    1  UNL1        0.0203
      9 C         142.7839  142.7705  163.9024 C.ar    1  UNL1        0.0782
     10 C         142.2748  140.9319  167.3824 C.ar    1  UNL1        0.0015
     11 C         142.6630  139.6480  168.0539 C.ar    1  UNL1        0.0000
     12 C         142.2068  139.3666  169.4549 C.ar    1  UNL1       -0.0001
     13 C         141.3625  140.3691  170.1844 C.ar    1  UNL1        0.0039
     14 C         140.9743  141.6530  169.5128 C.ar    1  UNL1        0.0714
     15 C         141.4305  141.9344  168.1119 C.ar    1  UNL1        0.0039
     16 C         140.1300  142.6555  170.2423 C.3     1  UNL1        0.4186
     17 F         139.2856  143.6580  170.9717 F       1  UNL1       -0.1659
     18 F         139.0076  141.6625  170.3077 F       1  UNL1       -0.1659
     19 F         141.2523  143.6485  170.1768 F       1  UNL1       -0.1659
     20 C         141.7392  145.1562  163.3007 C.3     1  UNL1        0.1920
     21 O         140.0412  146.2237  161.6492 O.2     1  UNL1       -0.2728
     22 C         140.3380  145.2848  162.7808 C.2     1  UNL1        0.2487
     23 N         139.2337  144.4746  163.3924 N.am    1  UNL1       -0.2778
     24 C         139.1461  143.4659  164.4992 C.3     1  UNL1        0.0952
     25 C         137.6720  143.3288  164.2574 C.3     1  UNL1        0.0430
     26 C         137.7597  144.3376  163.1507 C.3     1  UNL1        0.0952
@<TRIPOS>BOND
     1    21    22    2
     2    22    20    1
     3    20     1    1
     4     1     2   ar
     5     2     3   ar
     6     3     4   ar
     7     4     5   ar
     8     5     6   ar
     9     6     7   ar
    10     7    10    1
    11    10    11   ar
    12    11    12   ar
    13    12    13   ar
    14    13    14   ar
    15    14    16    1
    16    16    17    1
    17    16    18    1
    18    16    19    1
    19    14    15   ar
    20     7     8   ar
    21     8     9   ar
    22    22    23   am
    23    23    24    1
    24    24    25    1
    25    25    26    1
    26     9     1   ar
    27    26    23    1
    28     9     4   ar
    29    15    10   ar
@<TRIPOS>MOLECULE
*****
 26 29 0 0 0
SMALL
GASTEIGER

@<TRIPOS>ATOM
      1 N         143.6022  139.7424  162.4946 N.ar    1  UNL1       -0.3165
      2 C         144.3218  140.3668  161.3360 C.ar    1  UNL1        0.0779
      3 C         144.7663  141.7380  161.7511 C.ar    1  UNL1        0.0392
      4 C         144.3215  141.9610  163.1662 C.ar    1  UNL1        0.0985
      5 N         144.4786  143.1277  164.0957 N.ar    1  UNL1       -0.2423
      6 C         143.9163  143.0611  165.4846 C.ar    1  UNL1        0.0989
      7 C         143.1968  141.8277  165.9441 C.ar    1  UNL1        0.0206
      8 C         143.0397  140.6609  165.0146 C.ar    1  UNL1        0.0203
      9 C         143.6020  140.7276  163.6257 C.ar    1  UNL1        0.0782
     10 C         142.6345  141.7611  167.3332 C.ar    1  UNL1        0.0015
     11 C         143.4147  142.3202  168.4858 C.ar    1  UNL1        0.0000
     12 C         142.8523  142.2536  169.8748 C.ar    1  UNL1       -0.0001
     13 C         141.5098  141.6279  170.1112 C.ar    1  UNL1        0.0039
     14 C         140.7295  141.0687  168.9585 C.ar    1  UNL1        0.0714
     15 C         141.2919  141.1353  167.5695 C.ar    1  UNL1        0.0039
     16 C         139.3869  140.4429  169.1949 C.3     1  UNL1        0.4186
     17 F         138.0443  139.8171  169.4312 F       1  UNL1       -0.1659
     18 F         139.5680  139.5926  167.9725 F       1  UNL1       -0.1659
     19 F         139.2058  141.2932  170.4172 F       1  UNL1       -0.1659
     20 C         142.9903  138.3731  162.5179 C.3     1  UNL1        0.1920
     21 O         141.0811  138.2201  160.7624 O.2     1  UNL1       -0.2728
     22 C         141.5370  138.1954  162.1912 C.2     1  UNL1        0.2487
     23 N         140.5398  137.9930  163.2933 N.am    1  UNL1       -0.2778
     24 C         140.6140  137.9123  164.7893 C.3     1  UNL1        0.0952
     25 C         139.1295  137.7067  164.8518 C.3     1  UNL1        0.0430
     26 C         139.0553  137.7874  163.3558 C.3     1  UNL1        0.0952
@<TRIPOS>BOND
     1    21    22    2
     2    22    20    1
     3    20     1    1
     4     1     2   ar
     5     2     3   ar
     6     3     4   ar
     7     4     5   ar
     8     5     6   ar
     9     6     7   ar
    10     7    10    1
    11    10    11   ar
    12    11    12   ar
    13    12    13   ar
    14    13    14   ar
    15    14    16    1
    16    16    17    1
    17    16    18    1
    18    16    19    1
    19    14    15   ar
    20     7     8   ar
    21     8     9   ar
    22    22    23   am
    23    23    24    1
    24    24    25    1
    25    25    26    1
    26     9     1   ar
    27    26    23    1
    28     9     4   ar
    29    15    10   ar
@<TRIPOS>MOLECULE
*****
 26 29 0 0 0
SMALL
GASTEIGER

@<TRIPOS>ATOM
      1 N         138.1483  140.9925  162.0693 N.ar    1  UNL1       -0.3165
      2 C         137.5441  140.0280  161.0922 C.ar    1  UNL1        0.0779
      3 C         137.7296  138.6418  161.6344 C.ar    1  UNL1        0.0392
      4 C         138.4484  138.7496  162.9465 C.ar    1  UNL1        0.0985
      5 N         138.9007  137.7124  163.9312 N.ar    1  UNL1       -0.2423
      6 C         139.6118  138.1282  165.1848 C.ar    1  UNL1        0.0989
      7 C         139.8706  139.5810  165.4536 C.ar    1  UNL1        0.0206
      8 C         139.4183  140.6181  164.4688 C.ar    1  UNL1        0.0203
      9 C         138.7072  140.2024  163.2153 C.ar    1  UNL1        0.0782
     10 C         140.5818  139.9968  166.7072 C.ar    1  UNL1        0.0015
     11 C         141.9792  139.5193  166.9703 C.ar    1  UNL1        0.0000
     12 C         142.6903  139.9350  168.2239 C.ar    1  UNL1       -0.0001
     13 C         142.0040  140.8282  169.2144 C.ar    1  UNL1        0.0039
     14 C         140.6065  141.3057  168.9513 C.ar    1  UNL1        0.0714
     15 C         139.8955  140.8900  167.6978 C.ar    1  UNL1        0.0039
     16 C         139.9202  142.1989  169.9419 C.3     1  UNL1        0.4186
     17 F         139.2339  143.0921  170.9324 F       1  UNL1       -0.1659
     18 F         141.0385  143.1914  169.8218 F       1  UNL1       -0.1659
     19 F         138.8019  141.2064  170.0620 F       1  UNL1       -0.1659
     20 C         138.1869  142.4851  161.9256 C.3     1  UNL1        0.1920
     21 O         139.8633  143.0452  160.0213 O.2     1  UNL1       -0.2728
     22 C         139.4409  143.1613  161.4559 C.2     1  UNL1        0.2487
     23 N         140.2724  143.9534  162.4208 N.am    1  UNL1       -0.2778
     24 C         140.1760  144.2850  163.8805 C.3     1  UNL1        0.0952
     25 C         141.4483  145.0737  163.7854 C.3     1  UNL1        0.0430
     26 C         141.5447  144.7422  162.3256 C.3     1  UNL1        0.0952
@<TRIPOS>BOND
     1    21    22    2
     2    22    20    1
     3    20     1    1
     4     1     2   ar
     5     2     3   ar
     6     3     4   ar
     7     4     5   ar
     8     5     6   ar
     9     6     7   ar
    10     7    10    1
    11    10    11   ar
    12    11    12   ar
    13    12    13   ar
    14    13    14   ar
    15    14    16    1
    16    16    17    1
    17    16    18    1
    18    16    19    1
    19    14    15   ar
    20     7     8   ar
    21     8     9   ar
    22    22    23   am
    23    23    24    1
    24    24    25    1
    25    25    26    1
    26     9     1   ar
    27    26    23    1
    28     9     4   ar
    29    15    10   ar
@<TRIPOS>MOLECULE
*****
 26 29 0 0 0
SMALL
GASTEIGER

@<TRIPOS>ATOM
      1 N         142.1616  143.7519  161.4093 N.ar    1  UNL1       -0.3165
      2 C         141.6728  144.7603  160.4123 C.ar    1  UNL1        0.0779
      3 C         140.2816  145.1622  160.8036 C.ar    1  UNL1        0.0392
      4 C         139.9106  144.4022  162.0425 C.ar    1  UNL1        0.0985
      5 N         138.6650  144.3912  162.8780 N.ar    1  UNL1       -0.2423
      6 C         138.5812  143.5086  164.0879 C.ar    1  UNL1        0.0989
      7 C         139.7432  142.6369  164.4622 C.ar    1  UNL1        0.0206
      8 C         140.9888  142.6479  163.6267 C.ar    1  UNL1        0.0203
      9 C         141.0726  143.5305  162.4168 C.ar    1  UNL1        0.0782
     10 C         139.6594  141.7543  165.6722 C.ar    1  UNL1        0.0015
     11 C         140.3200  142.1719  166.9525 C.ar    1  UNL1        0.0000
     12 C         140.2363  141.2893  168.1624 C.ar    1  UNL1       -0.0001
     13 C         139.4918  139.9889  168.0921 C.ar    1  UNL1        0.0039
     14 C         138.8311  139.5713  166.8118 C.ar    1  UNL1        0.0714
     15 C         138.9149  140.4539  165.6019 C.ar    1  UNL1        0.0039
     16 C         138.0866  138.2710  166.7414 C.3     1  UNL1        0.4186
     17 F         137.3421  136.9707  166.6711 F       1  UNL1       -0.1659
     18 F         137.2675  138.6756  167.9311 F       1  UNL1       -0.1659
     19 F         138.9058  137.8664  165.5518 F       1  UNL1       -0.1659
     20 C         143.5038  143.0823  161.4005 C.3     1  UNL1        0.1920
     21 O         143.1742  140.8428  160.1254 O.2     1  UNL1       -0.2728
     22 C         143.5951  141.5856  161.3586 C.2     1  UNL1        0.2487
     23 N         144.1074  140.8319  162.5500 N.am    1  UNL1       -0.2778
     24 C         144.6042  141.2131  163.9130 C.3     1  UNL1        0.0952
     25 C         144.8318  139.7659  164.2349 C.3     1  UNL1        0.0430
     26 C         144.3350  139.3846  162.8718 C.3     1  UNL1        0.0952
@<TRIPOS>BOND
     1    21    22    2
     2    22    20    1
     3    20     1    1
     4     1     2   ar
     5     2     3   ar
     6     3     4   ar
     7     4     5   ar
     8     5     6   ar
     9     6     7   ar
    10     7    10    1
    11    10    11   ar
    12    11    12   ar
    13    12    13   ar
    14    13    14   ar
    15    14    16    1
    16    16    17    1
    17    16    18    1
    18    16    19    1
    19    14    15   ar
    20     7     8   ar
    21     8     9   ar
    22    22    23   am
    23    23    24    1
    24    24    25    1
    25    25    26    1
    26     9     1   ar
    27    26    23    1
    28     9     4   ar
    29    15    10   ar
