@<TRIPOS>MOLECULE
*****
 33 36 0 0 0
SMALL
GASTEIGER

@<TRIPOS>ATOM
      1 C         139.8616  139.6527  166.4035 C.ar    1  UNL1        0.1102
      2 C         141.1284  140.3931  166.7153 C.ar    1  UNL1        0.1543
      3 C         141.3845  140.8878  168.1081 C.ar    1  UNL1        0.0696
      4 C         142.6512  141.6281  168.4199 C.ar    1  UNL1        0.0092
      5 C         142.9073  142.1228  169.8126 C.ar    1  UNL1        0.0369
      6 C         141.8966  141.8772  170.8935 C.ar    1  UNL1        0.1367
      7 O         142.1528  142.3720  172.2862 O.3     1  UNL1       -0.5054
      8 C         140.6299  141.1369  170.5816 C.ar    1  UNL1        0.0743
      9 C         140.3738  140.6422  169.1890 C.ar    1  UNL1        0.1546
     10 O         139.1070  139.9018  168.8771 O.2     1  UNL1       -0.4208
     11 C         138.8510  139.4071  167.4844 C.ar    1  UNL1        0.3487
     12 O         137.5842  138.6668  167.1725 O.2     1  UNL1       -0.2444
     13 H         142.9441  142.8344  172.4810 H       1  UNL1        0.2922
     14 C         138.1181  141.2368  164.5459 C.3     1  UNL1        0.0311
     15 C         138.7337  139.9500  164.0820 C.ar    1  UNL1       -0.0193
     16 C         138.4776  139.4553  162.6893 C.ar    1  UNL1        0.0254
     17 C         139.0932  138.1686  162.2254 C.ar    1  UNL1        0.1398
     18 F         138.8371  137.6738  160.8326 F       1  UNL1       -0.2042
     19 C         139.9650  137.3766  163.1542 C.ar    1  UNL1        0.0296
     20 C         140.2211  137.8712  164.5469 C.ar    1  UNL1        0.0023
     21 C         139.6055  139.1580  165.0107 C.ar    1  UNL1        0.0054
     22 O         142.1390  140.6387  165.6345 O.3     1  UNL1       -0.4532
     23 C         141.8636  141.6564  164.5674 C.ar    1  UNL1        0.1453
     24 C         142.0396  141.2943  163.1224 C.ar    1  UNL1        0.0375
     25 C         141.7643  142.3119  162.0554 C.ar    1  UNL1        0.0031
     26 C         141.3130  143.6915  162.4333 C.ar    1  UNL1        0.0002
     27 C         141.1370  144.0536  163.8783 C.ar    1  UNL1        0.0031
     28 C         141.4123  143.0360  164.9453 C.ar    1  UNL1        0.0375
     29 C         141.0376  144.7092  161.3663 C.2     1  UNL1        0.0012
     30 C         141.5112  144.4715  159.9630 C.2     1  UNL1        0.0151
     31 C         141.2359  145.4891  158.8960 C.2     1  UNL1        0.0729
     32 O         139.8302  145.9460  158.6401 O.co2   1  UNL1       -0.5446
     33 O         142.3662  146.0498  158.0847 O.co2   1  UNL1       -0.5446
@<TRIPOS>UNITY_ATOM_ATTR
32 1
charge -1
@<TRIPOS>BOND
     1    14    15    1
     2    15    16   ar
     3    16    17   ar
     4    17    18    1
     5    17    19   ar
     6    19    20   ar
     7    20    21   ar
     8    21     1    1
     9     1     2   ar
    10     2    22    1
    11    22    23    1
    12    23    24   ar
    13    24    25   ar
    14    25    26   ar
    15    26    29    1
    16    29    30    2
    17    30    31    1
    18    31    32   ar
    19    31    33   ar
    20    26    27   ar
    21    27    28   ar
    22     2     3   ar
    23     3     4   ar
    24     4     5   ar
    25     5     6   ar
    26     6     7    1
    27     6     8   ar
    28     8     9   ar
    29     9    10   ar
    30    10    11   ar
    31    11    12    2
    32    21    15   ar
    33    11     1   ar
    34    28    23   ar
    35     9     3   ar
    36     7    13    1
@<TRIPOS>MOLECULE
*****
 33 36 0 0 0
SMALL
GASTEIGER

@<TRIPOS>ATOM
      1 C         141.2175  139.8562  165.8051 C.ar    1  UNL1        0.1102
      2 C         140.6033  141.0691  166.4387 C.ar    1  UNL1        0.1543
      3 C         141.1781  141.6247  167.7080 C.ar    1  UNL1        0.0696
      4 C         140.5639  142.8376  168.3416 C.ar    1  UNL1        0.0092
      5 C         141.1387  143.3932  169.6108 C.ar    1  UNL1        0.0369
      6 C         142.3278  142.7358  170.2464 C.ar    1  UNL1        0.1367
      7 O         142.9026  143.2914  171.5157 O.3     1  UNL1       -0.5054
      8 C         142.9420  141.5229  169.6128 C.ar    1  UNL1        0.0743
      9 C         142.3672  140.9674  168.3436 C.ar    1  UNL1        0.1546
     10 O         142.9815  139.7544  167.7099 O.2     1  UNL1       -0.4208
     11 C         142.4066  139.1989  166.4407 C.ar    1  UNL1        0.3487
     12 O         143.0209  137.9859  165.8070 O.2     1  UNL1       -0.2444
     13 H         142.5189  144.0491  171.9115 H       1  UNL1        0.2922
     14 C         142.3522  140.6868  163.1551 C.3     1  UNL1        0.0311
     15 C         141.2100  139.7159  163.2108 C.ar    1  UNL1       -0.0193
     16 C         140.6353  139.1604  161.9416 C.ar    1  UNL1        0.0254
     17 C         139.4932  138.1896  161.9974 C.ar    1  UNL1        0.1398
     18 F         138.9184  137.6340  160.7281 F       1  UNL1       -0.2042
     19 C         138.9259  137.7743  163.3224 C.ar    1  UNL1        0.0296
     20 C         139.5006  138.3298  164.5917 C.ar    1  UNL1        0.0023
     21 C         140.6427  139.3006  164.5359 C.ar    1  UNL1        0.0054
     22 O         139.4142  141.7265  165.8032 O.3     1  UNL1       -0.4532
     23 C         139.5969  142.6089  164.6040 C.ar    1  UNL1        0.1453
     24 C         138.7595  142.3919  163.3786 C.ar    1  UNL1        0.0375
     25 C         138.9422  143.2742  162.1794 C.ar    1  UNL1        0.0031
     26 C         139.9623  144.3736  162.2056 C.ar    1  UNL1        0.0002
     27 C         140.7997  144.5906  163.4310 C.ar    1  UNL1        0.0031
     28 C         140.6170  143.7083  164.6302 C.ar    1  UNL1        0.0375
     29 C         140.1450  145.2560  161.0064 C.2     1  UNL1        0.0012
     30 C         140.9511  144.7743  159.8367 C.2     1  UNL1        0.0151
     31 C         141.1339  145.6567  158.6375 C.2     1  UNL1        0.0729
     32 O         139.9361  146.2116  157.9252 O.co2   1  UNL1       -0.5446
     33 O         142.5143  145.9841  158.1506 O.co2   1  UNL1       -0.5446
@<TRIPOS>UNITY_ATOM_ATTR
32 1
charge -1
@<TRIPOS>BOND
     1    14    15    1
     2    15    16   ar
     3    16    17   ar
     4    17    18    1
     5    17    19   ar
     6    19    20   ar
     7    20    21   ar
     8    21     1    1
     9     1     2   ar
    10     2    22    1
    11    22    23    1
    12    23    24   ar
    13    24    25   ar
    14    25    26   ar
    15    26    29    1
    16    29    30    2
    17    30    31    1
    18    31    32   ar
    19    31    33   ar
    20    26    27   ar
    21    27    28   ar
    22     2     3   ar
    23     3     4   ar
    24     4     5   ar
    25     5     6   ar
    26     6     7    1
    27     6     8   ar
    28     8     9   ar
    29     9    10   ar
    30    10    11   ar
    31    11    12    2
    32    21    15   ar
    33    11     1   ar
    34    28    23   ar
    35     9     3   ar
    36     7    13    1
@<TRIPOS>MOLECULE
*****
 33 36 0 0 0
SMALL
GASTEIGER

@<TRIPOS>ATOM
      1 C         139.7312  140.7328  162.4001 C.ar    1  UNL1        0.1102
      2 C         141.1969  140.9090  162.1346 C.ar    1  UNL1        0.1543
      3 C         141.6563  141.8383  161.0504 C.ar    1  UNL1        0.0696
      4 C         143.1220  142.0145  160.7849 C.ar    1  UNL1        0.0092
      5 C         143.5814  142.9438  159.7007 C.ar    1  UNL1        0.0369
      6 C         142.5750  143.6969  158.8821 C.ar    1  UNL1        0.1367
      7 O         143.0345  144.6262  157.7980 O.3     1  UNL1       -0.5054
      8 C         141.1093  143.5207  159.1477 C.ar    1  UNL1        0.0743
      9 C         140.6500  142.5914  160.2318 C.ar    1  UNL1        0.1546
     10 O         139.1842  142.4151  160.4974 O.2     1  UNL1       -0.4208
     11 C         138.7248  141.4859  161.5815 C.ar    1  UNL1        0.3487
     12 O         137.2590  141.3096  161.8470 O.2     1  UNL1       -0.2444
     13 H         143.9501  144.7363  157.6321 H       1  UNL1        0.2922
     14 C         138.8712  141.8339  165.0549 C.3     1  UNL1        0.0311
     15 C         138.8418  140.3540  164.8116 C.ar    1  UNL1       -0.0193
     16 C         138.3823  139.4248  165.8958 C.ar    1  UNL1        0.0254
     17 C         138.3529  137.9450  165.6525 C.ar    1  UNL1        0.1398
     18 F         137.8935  137.0156  166.7367 F       1  UNL1       -0.2042
     19 C         138.7829  137.3944  164.3251 C.ar    1  UNL1        0.0296
     20 C         139.2423  138.3236  163.2410 C.ar    1  UNL1        0.0023
     21 C         139.2717  139.8035  163.4842 C.ar    1  UNL1        0.0054
     22 O         142.2033  140.1559  162.9532 O.3     1  UNL1       -0.4532
     23 C         142.4233  140.5198  164.3917 C.ar    1  UNL1        0.1453
     24 C         142.7208  141.9409  164.7687 C.ar    1  UNL1        0.0375
     25 C         142.9409  142.3048  166.2071 C.ar    1  UNL1        0.0031
     26 C         142.8635  141.2477  167.2685 C.ar    1  UNL1        0.0002
     27 C         142.5661  139.8267  166.8914 C.ar    1  UNL1        0.0031
     28 C         142.3460  139.4627  165.4530 C.ar    1  UNL1        0.0375
     29 C         143.0836  141.6116  168.7070 C.2     1  UNL1        0.0012
     30 C         142.2147  142.6450  169.3606 C.2     1  UNL1        0.0151
     31 C         142.4347  143.0089  170.7990 C.2     1  UNL1        0.0729
     32 O         143.4877  144.0122  171.1662 O.co2   1  UNL1       -0.5446
     33 O         141.6019  142.3696  171.8702 O.co2   1  UNL1       -0.5446
@<TRIPOS>UNITY_ATOM_ATTR
32 1
charge -1
@<TRIPOS>BOND
     1    14    15    1
     2    15    16   ar
     3    16    17   ar
     4    17    18    1
     5    17    19   ar
     6    19    20   ar
     7    20    21   ar
     8    21     1    1
     9     1     2   ar
    10     2    22    1
    11    22    23    1
    12    23    24   ar
    13    24    25   ar
    14    25    26   ar
    15    26    29    1
    16    29    30    2
    17    30    31    1
    18    31    32   ar
    19    31    33   ar
    20    26    27   ar
    21    27    28   ar
    22     2     3   ar
    23     3     4   ar
    24     4     5   ar
    25     5     6   ar
    26     6     7    1
    27     6     8   ar
    28     8     9   ar
    29     9    10   ar
    30    10    11   ar
    31    11    12    2
    32    21    15   ar
    33    11     1   ar
    34    28    23   ar
    35     9     3   ar
    36     7    13    1
@<TRIPOS>MOLECULE
*****
 33 36 0 0 0
SMALL
GASTEIGER

@<TRIPOS>ATOM
      1 C         142.1075  139.2543  166.2520 C.ar    1  UNL1        0.1102
      2 C         141.0198  140.1987  166.6704 C.ar    1  UNL1        0.1543
      3 C         140.9542  140.6867  168.0873 C.ar    1  UNL1        0.0696
      4 C         139.8664  141.6311  168.5056 C.ar    1  UNL1        0.0092
      5 C         139.8009  142.1191  169.9225 C.ar    1  UNL1        0.0369
      6 C         140.8230  141.6628  170.9209 C.ar    1  UNL1        0.1367
      7 O         140.7574  142.1509  172.3379 O.3     1  UNL1       -0.5054
      8 C         141.9107  140.7185  170.5026 C.ar    1  UNL1        0.0743
      9 C         141.9763  140.2304  169.0858 C.ar    1  UNL1        0.1546
     10 O         143.0641  139.2861  168.6673 O.2     1  UNL1       -0.4208
     11 C         143.1296  138.7980  167.2505 C.ar    1  UNL1        0.3487
     12 O         144.2174  137.8536  166.8321 O.2     1  UNL1       -0.2444
     13 H         140.0779  142.7408  172.5992 H       1  UNL1        0.2922
     14 C         144.0734  140.4667  164.3375 C.3     1  UNL1        0.0311
     15 C         143.1560  139.3724  163.8778 C.ar    1  UNL1       -0.0193
     16 C         143.2217  138.8844  162.4610 C.ar    1  UNL1        0.0254
     17 C         142.3044  137.7902  162.0014 C.ar    1  UNL1        0.1398
     18 F         142.3700  137.3021  160.5845 F       1  UNL1       -0.2042
     19 C         141.3214  137.1841  162.9587 C.ar    1  UNL1        0.0296
     20 C         141.2558  137.6721  164.3755 C.ar    1  UNL1        0.0023
     21 C         142.1731  138.7663  164.8351 C.ar    1  UNL1        0.0054
     22 O         139.9976  140.6550  165.6719 O.3     1  UNL1       -0.4532
     23 C         140.4026  141.5539  164.5414 C.ar    1  UNL1        0.1453
     24 C         141.1819  142.8049  164.8202 C.ar    1  UNL1        0.0375
     25 C         141.5869  143.7039  163.6899 C.ar    1  UNL1        0.0031
     26 C         141.2126  143.3519  162.2806 C.ar    1  UNL1        0.0002
     27 C         140.4333  142.1009  162.0018 C.ar    1  UNL1        0.0031
     28 C         140.0283  141.2019  163.1322 C.ar    1  UNL1        0.0375
     29 C         141.6176  144.2509  161.1502 C.2     1  UNL1        0.0012
     30 C         140.7870  144.3075  159.9025 C.2     1  UNL1        0.0151
     31 C         141.1919  145.2064  158.7720 C.2     1  UNL1        0.0729
     32 O         142.5999  145.1744  158.2557 O.co2   1  UNL1       -0.5446
     33 O         140.1889  146.1374  158.1579 O.co2   1  UNL1       -0.5446
@<TRIPOS>UNITY_ATOM_ATTR
32 1
charge -1
@<TRIPOS>BOND
     1    14    15    1
     2    15    16   ar
     3    16    17   ar
     4    17    18    1
     5    17    19   ar
     6    19    20   ar
     7    20    21   ar
     8    21     1    1
     9     1     2   ar
    10     2    22    1
    11    22    23    1
    12    23    24   ar
    13    24    25   ar
    14    25    26   ar
    15    26    29    1
    16    29    30    2
    17    30    31    1
    18    31    32   ar
    19    31    33   ar
    20    26    27   ar
    21    27    28   ar
    22     2     3   ar
    23     3     4   ar
    24     4     5   ar
    25     5     6   ar
    26     6     7    1
    27     6     8   ar
    28     8     9   ar
    29     9    10   ar
    30    10    11   ar
    31    11    12    2
    32    21    15   ar
    33    11     1   ar
    34    28    23   ar
    35     9     3   ar
    36     7    13    1
@<TRIPOS>MOLECULE
*****
 33 36 0 0 0
SMALL
GASTEIGER

@<TRIPOS>ATOM
      1 C         139.1391  140.1492  166.0849 C.ar    1  UNL1        0.1102
      2 C         140.2825  141.0675  166.3995 C.ar    1  UNL1        0.1543
      3 C         140.7714  141.2002  167.8115 C.ar    1  UNL1        0.0696
      4 C         141.9149  142.1186  168.1261 C.ar    1  UNL1        0.0092
      5 C         142.4037  142.2512  169.5379 C.ar    1  UNL1        0.0369
      6 C         141.7490  141.4655  170.6352 C.ar    1  UNL1        0.1367
      7 O         142.2379  141.5981  172.0471 O.3     1  UNL1       -0.5054
      8 C         140.6056  140.5471  170.3206 C.ar    1  UNL1        0.0743
      9 C         140.1168  140.4145  168.9087 C.ar    1  UNL1        0.1546
     10 O         138.9732  139.4961  168.5941 O.2     1  UNL1       -0.4208
     11 C         138.4844  139.3634  167.1822 C.ar    1  UNL1        0.3487
     12 O         137.3409  138.4450  166.8676 O.2     1  UNL1       -0.2444
     13 H         142.9522  142.1718  172.2437 H       1  UNL1        0.2922
     14 C         139.7904  137.6886  164.4970 C.3     1  UNL1        0.0311
     15 C         138.9759  138.7862  163.8791 C.ar    1  UNL1       -0.0193
     16 C         138.4871  138.6535  162.4672 C.ar    1  UNL1        0.0254
     17 C         137.6725  139.7511  161.8493 C.ar    1  UNL1        0.1398
     18 F         137.1837  139.6184  160.4374 F       1  UNL1       -0.2042
     19 C         137.3469  140.9814  162.6432 C.ar    1  UNL1        0.0296
     20 C         137.8357  141.1141  164.0551 C.ar    1  UNL1        0.0023
     21 C         138.6502  140.0165  164.6730 C.ar    1  UNL1        0.0054
     22 O         140.9372  141.8533  165.3023 O.3     1  UNL1       -0.4532
     23 C         141.5019  141.1449  164.1066 C.ar    1  UNL1        0.1453
     24 C         142.4635  140.0088  164.2929 C.ar    1  UNL1        0.0375
     25 C         143.0281  139.3005  163.0974 C.ar    1  UNL1        0.0031
     26 C         142.6312  139.7282  161.7156 C.ar    1  UNL1        0.0002
     27 C         141.6696  140.8642  161.5293 C.ar    1  UNL1        0.0031
     28 C         141.1050  141.5726  162.7248 C.ar    1  UNL1        0.0375
     29 C         143.1959  139.0198  160.5200 C.2     1  UNL1        0.0012
     30 C         142.4179  138.9747  159.2383 C.2     1  UNL1        0.0151
     31 C         142.9825  138.2664  158.0427 C.2     1  UNL1        0.0729
     32 O         142.6741  136.8161  157.8153 O.co2   1  UNL1       -0.5446
     33 O         143.8555  139.0083  157.0745 O.co2   1  UNL1       -0.5446
@<TRIPOS>UNITY_ATOM_ATTR
32 1
charge -1
@<TRIPOS>BOND
     1    14    15    1
     2    15    16   ar
     3    16    17   ar
     4    17    18    1
     5    17    19   ar
     6    19    20   ar
     7    20    21   ar
     8    21     1    1
     9     1     2   ar
    10     2    22    1
    11    22    23    1
    12    23    24   ar
    13    24    25   ar
    14    25    26   ar
    15    26    29    1
    16    29    30    2
    17    30    31    1
    18    31    32   ar
    19    31    33   ar
    20    26    27   ar
    21    27    28   ar
    22     2     3   ar
    23     3     4   ar
    24     4     5   ar
    25     5     6   ar
    26     6     7    1
    27     6     8   ar
    28     8     9   ar
    29     9    10   ar
    30    10    11   ar
    31    11    12    2
    32    21    15   ar
    33    11     1   ar
    34    28    23   ar
    35     9     3   ar
    36     7    13    1
@<TRIPOS>MOLECULE
*****
 33 36 0 0 0
SMALL
GASTEIGER

@<TRIPOS>ATOM
      1 C         139.4365  140.9917  166.0726 C.ar    1  UNL1        0.1102
      2 C         140.5197  141.8156  166.7033 C.ar    1  UNL1        0.1543
      3 C         140.9687  141.5190  168.1035 C.ar    1  UNL1        0.0696
      4 C         142.0519  142.3429  168.7342 C.ar    1  UNL1        0.0092
      5 C         142.5008  142.0463  170.1343 C.ar    1  UNL1        0.0369
      6 C         141.8665  140.9257  170.9037 C.ar    1  UNL1        0.1367
      7 O         142.3155  140.6291  172.3039 O.3     1  UNL1       -0.5054
      8 C         140.7833  140.1018  170.2730 C.ar    1  UNL1        0.0743
      9 C         140.3344  140.3984  168.8729 C.ar    1  UNL1        0.1546
     10 O         139.2512  139.5745  168.2421 O.2     1  UNL1       -0.4208
     11 C         138.8022  139.8712  166.8420 C.ar    1  UNL1        0.3487
     12 O         137.7190  139.0472  166.2113 O.2     1  UNL1       -0.2444
     13 H         142.9922  141.1437  172.6979 H       1  UNL1        0.2922
     14 C         140.4422  139.3249  163.7900 C.3     1  UNL1        0.0311
     15 C         139.4904  140.4549  163.5311 C.ar    1  UNL1       -0.0193
     16 C         139.0414  140.7515  162.1310 C.ar    1  UNL1        0.0254
     17 C         138.0896  141.8815  161.8721 C.ar    1  UNL1        0.1398
     18 F         137.6406  142.1782  160.4719 F       1  UNL1       -0.2042
     19 C         137.5867  142.7150  163.0134 C.ar    1  UNL1        0.0296
     20 C         138.0357  142.4184  164.4135 C.ar    1  UNL1        0.0023
     21 C         138.9875  141.2884  164.6724 C.ar    1  UNL1        0.0054
     22 O         141.1539  142.9362  165.9338 O.3     1  UNL1       -0.4532
     23 C         141.9434  142.6412  164.6929 C.ar    1  UNL1        0.1453
     24 C         143.0635  141.6444  164.7359 C.ar    1  UNL1        0.0375
     25 C         143.8530  141.3494  163.4951 C.ar    1  UNL1        0.0031
     26 C         143.5224  142.0512  162.2113 C.ar    1  UNL1        0.0002
     27 C         142.4023  143.0480  162.1683 C.ar    1  UNL1        0.0031
     28 C         141.6128  143.3430  163.4091 C.ar    1  UNL1        0.0375
     29 C         144.3119  141.7562  160.9704 C.2     1  UNL1        0.0012
     30 C         143.6384  141.7774  159.6303 C.2     1  UNL1        0.0151
     31 C         144.4278  141.4824  158.3894 C.2     1  UNL1        0.0729
     32 O         144.5351  140.0735  157.8860 O.co2   1  UNL1       -0.5446
     33 O         145.1099  142.5964  157.6519 O.co2   1  UNL1       -0.5446
@<TRIPOS>UNITY_ATOM_ATTR
32 1
charge -1
@<TRIPOS>BOND
     1    14    15    1
     2    15    16   ar
     3    16    17   ar
     4    17    18    1
     5    17    19   ar
     6    19    20   ar
     7    20    21   ar
     8    21     1    1
     9     1     2   ar
    10     2    22    1
    11    22    23    1
    12    23    24   ar
    13    24    25   ar
    14    25    26   ar
    15    26    29    1
    16    29    30    2
    17    30    31    1
    18    31    32   ar
    19    31    33   ar
    20    26    27   ar
    21    27    28   ar
    22     2     3   ar
    23     3     4   ar
    24     4     5   ar
    25     5     6   ar
    26     6     7    1
    27     6     8   ar
    28     8     9   ar
    29     9    10   ar
    30    10    11   ar
    31    11    12    2
    32    21    15   ar
    33    11     1   ar
    34    28    23   ar
    35     9     3   ar
    36     7    13    1
@<TRIPOS>MOLECULE
*****
 33 36 0 0 0
SMALL
GASTEIGER

@<TRIPOS>ATOM
      1 C         139.7579  139.2784  162.3346 C.ar    1  UNL1        0.1102
      2 C         141.2410  139.2090  162.1209 C.ar    1  UNL1        0.1543
      3 C         141.8200  139.5222  160.7729 C.ar    1  UNL1        0.0696
      4 C         143.3030  139.4528  160.5592 C.ar    1  UNL1        0.0092
      5 C         143.8819  139.7659  159.2113 C.ar    1  UNL1        0.0369
      6 C         142.9777  140.1485  158.0772 C.ar    1  UNL1        0.1367
      7 O         143.5567  140.4616  156.7293 O.3     1  UNL1       -0.5054
      8 C         141.4947  140.2179  158.2910 C.ar    1  UNL1        0.0743
      9 C         140.9158  139.9047  159.6388 C.ar    1  UNL1        0.1546
     10 O         139.4327  139.9741  159.8527 O.2     1  UNL1       -0.4208
     11 C         138.8538  139.6609  161.2005 C.ar    1  UNL1        0.3487
     12 O         137.3707  139.7303  161.4143 O.2     1  UNL1       -0.2444
     13 H         144.4831  140.4183  156.5958 H       1  UNL1        0.2922
     14 C         138.8273  141.5019  164.1207 C.3     1  UNL1        0.0311
     15 C         138.7137  140.0770  164.5756 C.ar    1  UNL1       -0.0193
     16 C         138.1347  139.7639  165.9234 C.ar    1  UNL1        0.0254
     17 C         138.0211  138.3390  166.3782 C.ar    1  UNL1        0.1398
     18 F         137.4421  138.0259  167.7261 F       1  UNL1       -0.2042
     19 C         138.4864  137.2273  165.4852 C.ar    1  UNL1        0.0296
     20 C         139.0653  137.5404  164.1373 C.ar    1  UNL1        0.0023
     21 C         139.1790  138.9652  163.6825 C.ar    1  UNL1        0.0054
     22 O         142.1451  138.8264  163.2549 O.3     1  UNL1       -0.4532
     23 C         142.1899  139.6688  164.4954 C.ar    1  UNL1        0.1453
     24 C         142.3470  141.1565  164.3864 C.ar    1  UNL1        0.0375
     25 C         142.3918  141.9989  165.6267 C.ar    1  UNL1        0.0031
     26 C         142.2795  141.3534  166.9760 C.ar    1  UNL1        0.0002
     27 C         142.1224  139.8657  167.0850 C.ar    1  UNL1        0.0031
     28 C         142.0776  139.0233  165.8447 C.ar    1  UNL1        0.0375
     29 C         142.3242  142.1958  168.2164 C.2     1  UNL1        0.0012
     30 C         141.0683  142.8271  168.7400 C.2     1  UNL1        0.0151
     31 C         141.1131  143.6694  169.9803 C.2     1  UNL1        0.0729
     32 O         139.9113  144.4696  170.3873 O.co2   1  UNL1       -0.5446
     33 O         142.3595  143.7115  170.8138 O.co2   1  UNL1       -0.5446
@<TRIPOS>UNITY_ATOM_ATTR
32 1
charge -1
@<TRIPOS>BOND
     1    14    15    1
     2    15    16   ar
     3    16    17   ar
     4    17    18    1
     5    17    19   ar
     6    19    20   ar
     7    20    21   ar
     8    21     1    1
     9     1     2   ar
    10     2    22    1
    11    22    23    1
    12    23    24   ar
    13    24    25   ar
    14    25    26   ar
    15    26    29    1
    16    29    30    2
    17    30    31    1
    18    31    32   ar
    19    31    33   ar
    20    26    27   ar
    21    27    28   ar
    22     2     3   ar
    23     3     4   ar
    24     4     5   ar
    25     5     6   ar
    26     6     7    1
    27     6     8   ar
    28     8     9   ar
    29     9    10   ar
    30    10    11   ar
    31    11    12    2
    32    21    15   ar
    33    11     1   ar
    34    28    23   ar
    35     9     3   ar
    36     7    13    1
@<TRIPOS>MOLECULE
*****
 33 36 0 0 0
SMALL
GASTEIGER

@<TRIPOS>ATOM
      1 C         139.3301  141.0522  161.5382 C.ar    1  UNL1        0.1102
      2 C         140.5182  141.9678  161.5458 C.ar    1  UNL1        0.1543
      3 C         140.6477  143.0372  160.5019 C.ar    1  UNL1        0.0696
      4 C         141.8357  143.9529  160.5096 C.ar    1  UNL1        0.0092
      5 C         141.9651  145.0222  159.4657 C.ar    1  UNL1        0.0369
      6 C         140.9065  145.1759  158.4142 C.ar    1  UNL1        0.1367
      7 O         141.0360  146.2454  157.3703 O.3     1  UNL1       -0.5054
      8 C         139.7185  144.2603  158.4065 C.ar    1  UNL1        0.0743
      9 C         139.5890  143.1909  159.4504 C.ar    1  UNL1        0.1546
     10 O         138.4009  142.2752  159.4428 O.2     1  UNL1       -0.4208
     11 C         138.2715  141.2059  160.4866 C.ar    1  UNL1        0.3487
     12 O         137.0834  140.2902  160.4790 O.2     1  UNL1       -0.2444
     13 H         141.7781  146.8173  157.3751 H       1  UNL1        0.2922
     14 C         140.6470  138.3881  161.1276 C.3     1  UNL1        0.0311
     15 C         139.8591  138.6507  162.3768 C.ar    1  UNL1       -0.0193
     16 C         139.7297  137.5813  163.4206 C.ar    1  UNL1        0.0254
     17 C         138.9418  137.8440  164.6697 C.ar    1  UNL1        0.1398
     18 F         138.8123  136.7745  165.7136 F       1  UNL1       -0.2042
     19 C         138.2834  139.1760  164.8749 C.ar    1  UNL1        0.0296
     20 C         138.4128  140.2454  163.8311 C.ar    1  UNL1        0.0023
     21 C         139.2007  139.9827  162.5821 C.ar    1  UNL1        0.0054
     22 O         141.5768  141.8141  162.5973 O.3     1  UNL1       -0.4532
     23 C         141.2601  142.1212  164.0310 C.ar    1  UNL1        0.1453
     24 C         140.3839  143.2901  164.3717 C.ar    1  UNL1        0.0375
     25 C         140.0671  143.5973  165.8053 C.ar    1  UNL1        0.0031
     26 C         140.6265  142.7356  166.8982 C.ar    1  UNL1        0.0002
     27 C         141.5027  141.5667  166.5575 C.ar    1  UNL1        0.0031
     28 C         141.8194  141.2595  165.1239 C.ar    1  UNL1        0.0375
     29 C         140.3097  143.0427  168.3319 C.2     1  UNL1        0.0012
     30 C         140.3751  141.9561  169.3638 C.2     1  UNL1        0.0151
     31 C         140.0584  142.2632  170.7975 C.2     1  UNL1        0.0729
     32 O         140.5866  141.3792  171.8883 O.co2   1  UNL1       -0.5446
     33 O         139.2134  143.4541  171.1404 O.co2   1  UNL1       -0.5446
@<TRIPOS>UNITY_ATOM_ATTR
32 1
charge -1
@<TRIPOS>BOND
     1    14    15    1
     2    15    16   ar
     3    16    17   ar
     4    17    18    1
     5    17    19   ar
     6    19    20   ar
     7    20    21   ar
     8    21     1    1
     9     1     2   ar
    10     2    22    1
    11    22    23    1
    12    23    24   ar
    13    24    25   ar
    14    25    26   ar
    15    26    29    1
    16    29    30    2
    17    30    31    1
    18    31    32   ar
    19    31    33   ar
    20    26    27   ar
    21    27    28   ar
    22     2     3   ar
    23     3     4   ar
    24     4     5   ar
    25     5     6   ar
    26     6     7    1
    27     6     8   ar
    28     8     9   ar
    29     9    10   ar
    30    10    11   ar
    31    11    12    2
    32    21    15   ar
    33    11     1   ar
    34    28    23   ar
    35     9     3   ar
    36     7    13    1
@<TRIPOS>MOLECULE
*****
 33 36 0 0 0
SMALL
GASTEIGER

@<TRIPOS>ATOM
      1 C         140.2986  139.7198  165.8556 C.ar    1  UNL1        0.1102
      2 C         141.2741  140.6339  166.5357 C.ar    1  UNL1        0.1543
      3 C         141.0552  141.0352  167.9644 C.ar    1  UNL1        0.0696
      4 C         142.0307  141.9494  168.6445 C.ar    1  UNL1        0.0092
      5 C         141.8118  142.3507  170.0732 C.ar    1  UNL1        0.0369
      6 C         140.6174  141.8378  170.8217 C.ar    1  UNL1        0.1367
      7 O         140.3985  142.2391  172.2504 O.3     1  UNL1       -0.5054
      8 C         139.6419  140.9236  170.1415 C.ar    1  UNL1        0.0743
      9 C         139.8608  140.5224  168.7129 C.ar    1  UNL1        0.1546
     10 O         138.8852  139.6081  168.0327 O.2     1  UNL1       -0.4208
     11 C         139.1041  139.2069  166.6041 C.ar    1  UNL1        0.3487
     12 O         138.1286  138.2926  165.9239 O.2     1  UNL1       -0.2444
     13 H         141.0079  142.8102  172.6752 H       1  UNL1        0.2922
     14 C         142.2999  137.5874  165.1863 C.3     1  UNL1        0.0311
     15 C         141.5181  138.2523  164.0923 C.ar    1  UNL1       -0.0193
     16 C         141.7370  137.8509  162.6637 C.ar    1  UNL1        0.0254
     17 C         140.9553  138.5158  161.5697 C.ar    1  UNL1        0.1398
     18 F         141.1742  138.1144  160.1410 F       1  UNL1       -0.2042
     19 C         139.9546  139.5819  161.9043 C.ar    1  UNL1        0.0296
     20 C         139.7357  139.9833  163.3329 C.ar    1  UNL1        0.0023
     21 C         140.5175  139.3184  164.4269 C.ar    1  UNL1        0.0054
     22 O         142.4685  141.1468  165.7872 O.3     1  UNL1       -0.4532
     23 C         142.2807  142.0352  164.5932 C.ar    1  UNL1        0.1453
     24 C         141.3209  143.1861  164.6583 C.ar    1  UNL1        0.0375
     25 C         141.1331  144.0745  163.4644 C.ar    1  UNL1        0.0031
     26 C         141.9050  143.8119  162.2054 C.ar    1  UNL1        0.0002
     27 C         142.8648  142.6610  162.1403 C.ar    1  UNL1        0.0031
     28 C         143.0526  141.7727  163.3342 C.ar    1  UNL1        0.0375
     29 C         141.7172  144.7003  161.0114 C.2     1  UNL1        0.0012
     30 C         141.3090  144.1101  159.6942 C.2     1  UNL1        0.0151
     31 C         141.1211  144.9984  158.5003 C.2     1  UNL1        0.0729
     32 O         139.9101  144.8386  157.6297 O.co2   1  UNL1       -0.5446
     33 O         142.1443  146.0465  158.1768 O.co2   1  UNL1       -0.5446
@<TRIPOS>UNITY_ATOM_ATTR
32 1
charge -1
@<TRIPOS>BOND
     1    14    15    1
     2    15    16   ar
     3    16    17   ar
     4    17    18    1
     5    17    19   ar
     6    19    20   ar
     7    20    21   ar
     8    21     1    1
     9     1     2   ar
    10     2    22    1
    11    22    23    1
    12    23    24   ar
    13    24    25   ar
    14    25    26   ar
    15    26    29    1
    16    29    30    2
    17    30    31    1
    18    31    32   ar
    19    31    33   ar
    20    26    27   ar
    21    27    28   ar
    22     2     3   ar
    23     3     4   ar
    24     4     5   ar
    25     5     6   ar
    26     6     7    1
    27     6     8   ar
    28     8     9   ar
    29     9    10   ar
    30    10    11   ar
    31    11    12    2
    32    21    15   ar
    33    11     1   ar
    34    28    23   ar
    35     9     3   ar
    36     7    13    1
