@<TRIPOS>MOLECULE
*****
 36 39 0 0 0
SMALL
GASTEIGER

@<TRIPOS>ATOM
      1 C         141.1753  142.7223  164.8195 C.ar    1  UNL1        0.0538
      2 C         140.3360  143.9281  164.5168 C.ar    1  UNL1        0.0058
      3 C         140.0986  144.3387  163.0938 C.ar    1  UNL1        0.0147
      4 C         140.7007  143.5436  161.9734 C.ar    1  UNL1        0.0479
      5 C         141.5401  142.3378  162.2761 C.ar    1  UNL1        0.0147
      6 C         141.7774  141.9272  163.6991 C.ar    1  UNL1        0.0058
      7 N         140.4634  143.9542  160.5503 N.pl3   1  UNL1       -0.3041
      8 C         140.6871  145.3775  160.1332 C.3     1  UNL1        0.1123
      9 C         140.4498  145.7881  158.7101 C.3     1  UNL1        0.1151
     10 N         139.9888  144.7754  157.7043 N.am    1  UNL1       -0.2726
     11 C         139.7515  145.1860  156.2812 C.2     1  UNL1        0.2493
     12 O         139.2905  144.1733  155.2753 O.2     1  UNL1       -0.2699
     13 C         139.7651  143.3520  158.1214 C.3     1  UNL1        0.1151
     14 C         140.0024  142.9414  159.5445 C.3     1  UNL1        0.1123
     15 C         139.9752  146.6093  155.8640 C.2     1  UNL1        0.0579
     16 C         138.8094  147.4685  155.4733 C.2     1  UNL1        0.0047
     17 C         139.0331  148.8918  155.0562 C.ar    1  UNL1        0.0003
     18 C         138.4568  150.0116  155.8709 C.ar    1  UNL1        0.0023
     19 C         138.6805  151.4349  155.4538 C.ar    1  UNL1        0.0296
     20 C         139.4805  151.7385  154.2219 C.ar    1  UNL1        0.1401
     21 F         139.7043  153.1619  153.8047 F       1  UNL1       -0.2042
     22 C         140.0569  150.6187  153.4070 C.ar    1  UNL1        0.0296
     23 C         139.8332  149.1954  153.8242 C.ar    1  UNL1        0.0023
     24 N         140.2573  141.9056  167.1086 N.am    1  UNL1       -0.2794
     25 C         141.4127  142.3118  166.2426 C.2     1  UNL1        0.2495
     26 O         142.8054  142.3074  166.7996 O.2     1  UNL1       -0.2698
     27 H         139.3432  141.9085  166.7430 H       1  UNL1        0.1552
     28 N         140.1313  143.9499  169.3006 N.pl3   1  UNL1       -0.3560
     29 C         140.4316  142.5171  169.6277 C.ar    1  UNL1        0.0552
     30 C         140.6689  142.1065  171.0507 C.ar    1  UNL1        0.0153
     31 C         140.9692  140.6737  171.3778 C.ar    1  UNL1        0.0013
     32 C         141.0322  139.6516  170.2818 C.ar    1  UNL1        0.0014
     33 C         140.7949  140.0622  168.8588 C.ar    1  UNL1        0.0159
     34 C         140.4946  141.4950  168.5317 C.ar    1  UNL1        0.0636
     35 H         140.0900  144.6208  170.0200 H       1  UNL1        0.1424
     36 H         139.9756  144.2194  168.3666 H       1  UNL1        0.1424
@<TRIPOS>BOND
     1    28    29    1
     2    29    30   ar
     3    30    31   ar
     4    31    32   ar
     5    32    33   ar
     6    33    34   ar
     7    34    24    1
     8    24    25   am
     9    25    26    2
    10    25     1    1
    11     1     2   ar
    12     2     3   ar
    13     3     4   ar
    14     4     7    1
    15     7     8    1
    16     8     9    1
    17     9    10    1
    18    10    11   am
    19    11    12    2
    20    11    15    1
    21    15    16    2
    22    16    17    1
    23    17    18   ar
    24    18    19   ar
    25    19    20   ar
    26    20    21    1
    27    20    22   ar
    28    22    23   ar
    29    10    13    1
    30    13    14    1
    31     4     5   ar
    32     5     6   ar
    33    34    29   ar
    34     6     1   ar
    35    14     7    1
    36    23    17   ar
    37    28    35    1
    38    28    36    1
    39    24    27    1
@<TRIPOS>MOLECULE
*****
 36 39 0 0 0
SMALL
GASTEIGER

@<TRIPOS>ATOM
      1 C         144.7177  140.8878  157.2522 C.ar    1  UNL1        0.0538
      2 C         143.8037  139.7027  157.1512 C.ar    1  UNL1        0.0058
      3 C         142.8975  139.3548  158.2947 C.ar    1  UNL1        0.0147
      4 C         142.9052  140.1920  159.5392 C.ar    1  UNL1        0.0479
      5 C         143.8192  141.3771  159.6403 C.ar    1  UNL1        0.0147
      6 C         144.7254  141.7251  158.4967 C.ar    1  UNL1        0.0058
      7 N         141.9990  139.8441  160.6828 N.pl3   1  UNL1       -0.3041
      8 C         141.8915  140.7654  161.8617 C.3     1  UNL1        0.1123
      9 C         140.9854  140.4176  163.0052 C.3     1  UNL1        0.1151
     10 N         140.1866  139.1485  162.9700 N.am    1  UNL1       -0.2726
     11 C         139.2804  138.8006  164.1136 C.2     1  UNL1        0.2493
     12 O         138.4816  137.5314  164.0783 O.2     1  UNL1       -0.2699
     13 C         140.2941  138.2272  161.7911 C.3     1  UNL1        0.1151
     14 C         141.2003  138.5750  160.6476 C.3     1  UNL1        0.1123
     15 C         139.1729  139.7218  165.2924 C.2     1  UNL1        0.0579
     16 C         140.1577  139.6164  166.4189 C.2     1  UNL1        0.0047
     17 C         140.0503  140.5377  167.5978 C.ar    1  UNL1        0.0003
     18 C         139.3751  140.0727  168.8539 C.ar    1  UNL1        0.0023
     19 C         139.2676  140.9940  170.0328 C.ar    1  UNL1        0.0296
     20 C         139.8354  142.3803  169.9555 C.ar    1  UNL1        0.1401
     21 F         139.7279  143.3015  171.1343 F       1  UNL1       -0.2042
     22 C         140.5106  142.8453  168.6993 C.ar    1  UNL1        0.0296
     23 C         140.6180  141.9240  167.5204 C.ar    1  UNL1        0.0023
     24 N         146.6610  142.3069  156.2725 N.am    1  UNL1       -0.2794
     25 C         145.6239  141.2357  156.1086 C.2     1  UNL1        0.2495
     26 O         145.4930  140.5124  154.8011 O.2     1  UNL1       -0.2698
     27 H         146.7469  142.7817  157.1307 H       1  UNL1        0.1552
     28 N         145.8973  144.4925  154.3646 N.pl3   1  UNL1       -0.3560
     29 C         147.1854  143.7476  154.1750 C.ar    1  UNL1        0.0552
     30 C         148.0916  144.0954  153.0314 C.ar    1  UNL1        0.0153
     31 C         149.3797  143.3505  152.8419 C.ar    1  UNL1        0.0013
     32 C         149.7616  142.2578  153.7958 C.ar    1  UNL1        0.0014
     33 C         148.8553  141.9099  154.9393 C.ar    1  UNL1        0.0159
     34 C         147.5673  142.6548  155.1289 C.ar    1  UNL1        0.0636
     35 H         145.6467  145.2097  153.7384 H       1  UNL1        0.1424
     36 H         145.3025  144.2642  155.1151 H       1  UNL1        0.1424
@<TRIPOS>BOND
     1    28    29    1
     2    29    30   ar
     3    30    31   ar
     4    31    32   ar
     5    32    33   ar
     6    33    34   ar
     7    34    24    1
     8    24    25   am
     9    25    26    2
    10    25     1    1
    11     1     2   ar
    12     2     3   ar
    13     3     4   ar
    14     4     7    1
    15     7     8    1
    16     8     9    1
    17     9    10    1
    18    10    11   am
    19    11    12    2
    20    11    15    1
    21    15    16    2
    22    16    17    1
    23    17    18   ar
    24    18    19   ar
    25    19    20   ar
    26    20    21    1
    27    20    22   ar
    28    22    23   ar
    29    10    13    1
    30    13    14    1
    31     4     5   ar
    32     5     6   ar
    33    34    29   ar
    34     6     1   ar
    35    14     7    1
    36    23    17   ar
    37    28    35    1
    38    28    36    1
    39    24    27    1
@<TRIPOS>MOLECULE
*****
 36 39 0 0 0
SMALL
GASTEIGER

@<TRIPOS>ATOM
      1 C         139.4329  145.1442  156.8266 C.ar    1  UNL1        0.0538
      2 C         140.1340  145.4401  158.1193 C.ar    1  UNL1        0.0058
      3 C         140.3427  144.3482  159.1263 C.ar    1  UNL1        0.0147
      4 C         139.8503  142.9605  158.8407 C.ar    1  UNL1        0.0479
      5 C         139.1491  142.6646  157.5481 C.ar    1  UNL1        0.0147
      6 C         138.9405  143.7565  156.5411 C.ar    1  UNL1        0.0058
      7 N         140.0590  141.8685  159.8478 N.pl3   1  UNL1       -0.3041
      8 C         139.8594  142.1469  161.3082 C.3     1  UNL1        0.1123
      9 C         140.0680  141.0551  162.3152 C.3     1  UNL1        0.1151
     10 N         140.4763  139.6847  161.8619 N.am    1  UNL1       -0.2726
     11 C         140.6850  138.5928  162.8690 C.2     1  UNL1        0.2493
     12 O         141.0932  137.2225  162.4157 O.2     1  UNL1       -0.2699
     13 C         140.6758  139.4063  160.4016 C.3     1  UNL1        0.1151
     14 C         140.4672  140.4982  159.3945 C.3     1  UNL1        0.1123
     15 C         140.4854  138.8712  164.3294 C.2     1  UNL1        0.0579
     16 C         141.6634  139.1982  165.1984 C.2     1  UNL1        0.0047
     17 C         141.4639  139.4766  166.6588 C.ar    1  UNL1        0.0003
     18 C         142.6252  139.3906  167.6042 C.ar    1  UNL1        0.0023
     19 C         142.4256  139.6691  169.0646 C.ar    1  UNL1        0.0296
     20 C         141.0647  140.0335  169.5795 C.ar    1  UNL1        0.1401
     21 F         140.8652  140.3119  171.0398 F       1  UNL1       -0.2042
     22 C         139.9033  140.1195  168.6340 C.ar    1  UNL1        0.0296
     23 C         140.1029  139.8411  167.1736 C.ar    1  UNL1        0.0023
     24 N         140.2513  147.3180  155.6626 N.am    1  UNL1       -0.2794
     25 C         139.2242  146.2362  155.8196 C.2     1  UNL1        0.2495
     26 O         137.9884  146.2463  154.9695 O.2     1  UNL1       -0.2698
     27 H         141.0625  147.3113  156.2205 H       1  UNL1        0.1552
     28 N         138.8631  149.8535  156.4651 N.pl3   1  UNL1       -0.3560
     29 C         139.3486  149.6777  155.0568 C.ar    1  UNL1        0.0552
     30 C         139.1399  150.7695  154.0497 C.ar    1  UNL1        0.0153
     31 C         139.6254  150.5937  152.6414 C.ar    1  UNL1        0.0013
     32 C         140.3195  149.3260  152.2401 C.ar    1  UNL1        0.0014
     33 C         140.5281  148.2341  153.2472 C.ar    1  UNL1        0.0159
     34 C         140.0427  148.4100  154.6555 C.ar    1  UNL1        0.0636
     35 H         138.4075  150.6856  156.7285 H       1  UNL1        0.1424
     36 H         139.0001  149.1368  157.1261 H       1  UNL1        0.1424
@<TRIPOS>BOND
     1    28    29    1
     2    29    30   ar
     3    30    31   ar
     4    31    32   ar
     5    32    33   ar
     6    33    34   ar
     7    34    24    1
     8    24    25   am
     9    25    26    2
    10    25     1    1
    11     1     2   ar
    12     2     3   ar
    13     3     4   ar
    14     4     7    1
    15     7     8    1
    16     8     9    1
    17     9    10    1
    18    10    11   am
    19    11    12    2
    20    11    15    1
    21    15    16    2
    22    16    17    1
    23    17    18   ar
    24    18    19   ar
    25    19    20   ar
    26    20    21    1
    27    20    22   ar
    28    22    23   ar
    29    10    13    1
    30    13    14    1
    31     4     5   ar
    32     5     6   ar
    33    34    29   ar
    34     6     1   ar
    35    14     7    1
    36    23    17   ar
    37    28    35    1
    38    28    36    1
    39    24    27    1
@<TRIPOS>MOLECULE
*****
 36 39 0 0 0
SMALL
GASTEIGER

@<TRIPOS>ATOM
      1 C         141.5392  137.2418  157.1495 C.ar    1  UNL1        0.0538
      2 C         142.5348  137.6352  158.2001 C.ar    1  UNL1        0.0058
      3 C         142.1320  138.5688  159.3029 C.ar    1  UNL1        0.0147
      4 C         140.7336  139.1088  159.3551 C.ar    1  UNL1        0.0479
      5 C         139.7380  138.7153  158.3044 C.ar    1  UNL1        0.0147
      6 C         140.1408  137.7818  157.2016 C.ar    1  UNL1        0.0058
      7 N         140.3307  140.0424  160.4579 N.pl3   1  UNL1       -0.3041
      8 C         140.3756  139.5814  161.8846 C.3     1  UNL1        0.1123
      9 C         139.9728  140.5149  162.9874 C.3     1  UNL1        0.1151
     10 N         139.5250  141.9094  162.6636 N.am    1  UNL1       -0.2726
     11 C         139.1222  142.8430  163.7664 C.2     1  UNL1        0.2493
     12 O         138.6744  144.2374  163.4425 O.2     1  UNL1       -0.2699
     13 C         139.4801  142.3704  161.2369 C.3     1  UNL1        0.1151
     14 C         139.8830  141.4369  160.1340 C.3     1  UNL1        0.1123
     15 C         139.1671  142.3820  165.1931 C.2     1  UNL1        0.0579
     16 C         140.4061  142.5947  166.0114 C.2     1  UNL1        0.0047
     17 C         140.4510  142.1337  167.4381 C.ar    1  UNL1        0.0003
     18 C         140.5248  140.6686  167.7509 C.ar    1  UNL1        0.0023
     19 C         140.5697  140.2076  169.1776 C.ar    1  UNL1        0.0296
     20 C         140.5408  141.2118  170.2915 C.ar    1  UNL1        0.1401
     21 F         140.5857  140.7508  171.7182 F       1  UNL1       -0.2042
     22 C         140.4670  142.6770  169.9787 C.ar    1  UNL1        0.0296
     23 C         140.4221  143.1380  168.5520 C.ar    1  UNL1        0.0023
     24 N         141.0179  135.2056  155.6222 N.am    1  UNL1       -0.2794
     25 C         141.9420  136.3082  156.0466 C.2     1  UNL1        0.2495
     26 O         143.2691  136.4773  155.3682 O.2     1  UNL1       -0.2698
     27 H         140.1468  135.0946  156.0675 H       1  UNL1        0.1552
     28 N         142.3216  132.5843  156.2772 N.pl3   1  UNL1       -0.3560
     29 C         142.0726  132.9614  154.8469 C.ar    1  UNL1        0.0552
     30 C         142.4754  132.0279  153.7440 C.ar    1  UNL1        0.0153
     31 C         142.2264  132.4050  152.3137 C.ar    1  UNL1        0.0013
     32 C         141.5745  133.7156  151.9863 C.ar    1  UNL1        0.0014
     33 C         141.1717  134.6491  153.0891 C.ar    1  UNL1        0.0159
     34 C         141.4207  134.2720  154.5194 C.ar    1  UNL1        0.0636
     35 H         142.7495  131.7240  156.4921 H       1  UNL1        0.1424
     36 H         142.0572  133.1970  157.0010 H       1  UNL1        0.1424
@<TRIPOS>BOND
     1    28    29    1
     2    29    30   ar
     3    30    31   ar
     4    31    32   ar
     5    32    33   ar
     6    33    34   ar
     7    34    24    1
     8    24    25   am
     9    25    26    2
    10    25     1    1
    11     1     2   ar
    12     2     3   ar
    13     3     4   ar
    14     4     7    1
    15     7     8    1
    16     8     9    1
    17     9    10    1
    18    10    11   am
    19    11    12    2
    20    11    15    1
    21    15    16    2
    22    16    17    1
    23    17    18   ar
    24    18    19   ar
    25    19    20   ar
    26    20    21    1
    27    20    22   ar
    28    22    23   ar
    29    10    13    1
    30    13    14    1
    31     4     5   ar
    32     5     6   ar
    33    34    29   ar
    34     6     1   ar
    35    14     7    1
    36    23    17   ar
    37    28    35    1
    38    28    36    1
    39    24    27    1
@<TRIPOS>MOLECULE
*****
 36 39 0 0 0
SMALL
GASTEIGER

@<TRIPOS>ATOM
      1 C         140.8996  140.7848  163.9804 C.ar    1  UNL1        0.0538
      2 C         141.7465  139.5490  163.9053 C.ar    1  UNL1        0.0058
      3 C         142.1063  138.9664  162.5707 C.ar    1  UNL1        0.0147
      4 C         141.6193  139.6196  161.3113 C.ar    1  UNL1        0.0479
      5 C         140.7724  140.8554  161.3865 C.ar    1  UNL1        0.0147
      6 C         140.4126  141.4380  162.7210 C.ar    1  UNL1        0.0058
      7 N         141.9791  139.0370  159.9767 N.pl3   1  UNL1       -0.3041
      8 C         142.5939  137.6712  159.8957 C.3     1  UNL1        0.1123
      9 C         142.9537  137.0886  158.5612 C.3     1  UNL1        0.1151
     10 N         142.6987  137.8718  157.3076 N.am    1  UNL1       -0.2726
     11 C         143.0585  137.2892  155.9730 C.2     1  UNL1        0.2493
     12 O         142.8035  138.0724  154.7194 O.2     1  UNL1       -0.2699
     13 C         142.0839  139.2376  157.3886 C.3     1  UNL1        0.1151
     14 C         141.7241  139.8202  158.7231 C.3     1  UNL1        0.1123
     15 C         143.6733  135.9233  155.8920 C.2     1  UNL1        0.0579
     16 C         142.8107  134.7278  155.6156 C.2     1  UNL1        0.0047
     17 C         143.4256  133.3619  155.5346 C.ar    1  UNL1        0.0003
     18 C         144.4516  132.9403  156.5442 C.ar    1  UNL1        0.0023
     19 C         145.0664  131.5745  156.4632 C.ar    1  UNL1        0.0296
     20 C         144.6552  130.6303  155.3727 C.ar    1  UNL1        0.1401
     21 F         145.2700  129.2645  155.2917 F       1  UNL1       -0.2042
     22 C         143.6290  131.0519  154.3630 C.ar    1  UNL1        0.0296
     23 C         143.0142  132.4178  154.4440 C.ar    1  UNL1        0.0023
     24 N         141.1335  140.7949  166.5680 N.am    1  UNL1       -0.2794
     25 C         140.5398  141.3674  165.3151 C.2     1  UNL1        0.2495
     26 O         139.5863  142.5225  165.3967 O.2     1  UNL1       -0.2698
     27 H         141.7593  140.0368  166.5144 H       1  UNL1        0.1552
     28 N         139.0015  139.5080  168.2409 N.pl3   1  UNL1       -0.3560
     29 C         139.7077  140.7341  168.7390 C.ar    1  UNL1        0.0552
     30 C         139.3479  141.3167  170.0736 C.ar    1  UNL1        0.0153
     31 C         140.0541  142.5427  170.5717 C.ar    1  UNL1        0.0013
     32 C         141.1201  143.1861  169.7353 C.ar    1  UNL1        0.0014
     33 C         141.4799  142.6035  168.4007 C.ar    1  UNL1        0.0159
     34 C         140.7737  141.3775  167.9026 C.ar    1  UNL1        0.0636
     35 H         138.3018  139.0857  168.7899 H       1  UNL1        0.1424
     36 H         139.2376  139.1257  167.3650 H       1  UNL1        0.1424
@<TRIPOS>BOND
     1    28    29    1
     2    29    30   ar
     3    30    31   ar
     4    31    32   ar
     5    32    33   ar
     6    33    34   ar
     7    34    24    1
     8    24    25   am
     9    25    26    2
    10    25     1    1
    11     1     2   ar
    12     2     3   ar
    13     3     4   ar
    14     4     7    1
    15     7     8    1
    16     8     9    1
    17     9    10    1
    18    10    11   am
    19    11    12    2
    20    11    15    1
    21    15    16    2
    22    16    17    1
    23    17    18   ar
    24    18    19   ar
    25    19    20   ar
    26    20    21    1
    27    20    22   ar
    28    22    23   ar
    29    10    13    1
    30    13    14    1
    31     4     5   ar
    32     5     6   ar
    33    34    29   ar
    34     6     1   ar
    35    14     7    1
    36    23    17   ar
    37    28    35    1
    38    28    36    1
    39    24    27    1
@<TRIPOS>MOLECULE
*****
 36 39 0 0 0
SMALL
GASTEIGER

@<TRIPOS>ATOM
      1 C         142.6324  139.5021  164.9605 C.ar    1  UNL1        0.0538
      2 C         143.5145  140.4415  164.1928 C.ar    1  UNL1        0.0058
      3 C         143.6448  140.3010  162.7051 C.ar    1  UNL1        0.0147
      4 C         142.8929  139.2211  161.9851 C.ar    1  UNL1        0.0479
      5 C         142.0107  138.2817  162.7528 C.ar    1  UNL1        0.0147
      6 C         141.8805  138.4222  164.2405 C.ar    1  UNL1        0.0058
      7 N         143.0231  139.0805  160.4974 N.pl3   1  UNL1       -0.3041
      8 C         142.5411  137.8337  159.8168 C.3     1  UNL1        0.1123
      9 C         142.6713  137.6930  158.3291 C.3     1  UNL1        0.1151
     10 N         143.2835  138.7992  157.5220 N.am    1  UNL1       -0.2726
     11 C         143.4137  138.6586  156.0342 C.2     1  UNL1        0.2493
     12 O         144.0259  139.7648  155.2271 O.2     1  UNL1       -0.2699
     13 C         143.7655  140.0460  158.2026 C.3     1  UNL1        0.1151
     14 C         143.6353  140.1867  159.6902 C.3     1  UNL1        0.1123
     15 C         142.9317  137.4118  155.3537 C.2     1  UNL1        0.0579
     16 C         143.6562  136.1152  155.5629 C.2     1  UNL1        0.0047
     17 C         143.1742  134.8684  154.8824 C.ar    1  UNL1        0.0003
     18 C         143.5837  133.5231  155.4040 C.ar    1  UNL1        0.0023
     19 C         143.1017  132.2763  154.7235 C.ar    1  UNL1        0.0296
     20 C         142.2102  132.3748  153.5213 C.ar    1  UNL1        0.1401
     21 F         141.7281  131.1280  152.8407 F       1  UNL1       -0.2042
     22 C         141.8006  133.7203  152.9995 C.ar    1  UNL1        0.0296
     23 C         142.2826  134.9671  153.6801 C.ar    1  UNL1        0.0023
     24 N         141.5553  140.6524  167.0261 N.am    1  UNL1       -0.2794
     25 C         142.5022  139.6427  166.4482 C.2     1  UNL1        0.2495
     26 O         143.3188  138.7736  167.3580 O.2     1  UNL1       -0.2698
     27 H         141.0193  141.2228  166.4290 H       1  UNL1        0.1552
     28 N         143.3830  142.5006  168.5239 N.pl3   1  UNL1       -0.3560
     29 C         142.3389  141.7171  169.2628 C.ar    1  UNL1        0.0552
     30 C         142.2087  141.8576  170.7504 C.ar    1  UNL1        0.0153
     31 C         141.1646  141.0740  171.4893 C.ar    1  UNL1        0.0013
     32 C         140.2507  140.1499  170.7404 C.ar    1  UNL1        0.0014
     33 C         140.3810  140.0094  169.2527 C.ar    1  UNL1        0.0159
     34 C         141.4251  140.7929  168.5139 C.ar    1  UNL1        0.0636
     35 H         143.9828  143.1072  169.0155 H       1  UNL1        0.1424
     36 H         143.4685  142.4084  167.5475 H       1  UNL1        0.1424
@<TRIPOS>BOND
     1    28    29    1
     2    29    30   ar
     3    30    31   ar
     4    31    32   ar
     5    32    33   ar
     6    33    34   ar
     7    34    24    1
     8    24    25   am
     9    25    26    2
    10    25     1    1
    11     1     2   ar
    12     2     3   ar
    13     3     4   ar
    14     4     7    1
    15     7     8    1
    16     8     9    1
    17     9    10    1
    18    10    11   am
    19    11    12    2
    20    11    15    1
    21    15    16    2
    22    16    17    1
    23    17    18   ar
    24    18    19   ar
    25    19    20   ar
    26    20    21    1
    27    20    22   ar
    28    22    23   ar
    29    10    13    1
    30    13    14    1
    31     4     5   ar
    32     5     6   ar
    33    34    29   ar
    34     6     1   ar
    35    14     7    1
    36    23    17   ar
    37    28    35    1
    38    28    36    1
    39    24    27    1
@<TRIPOS>MOLECULE
*****
 36 39 0 0 0
SMALL
GASTEIGER

@<TRIPOS>ATOM
      1 C         141.6919  136.4539  156.3956 C.ar    1  UNL1        0.0538
      2 C         140.2966  136.9927  156.2835 C.ar    1  UNL1        0.0058
      3 C         139.7940  137.9877  157.2871 C.ar    1  UNL1        0.0147
      4 C         140.6867  138.4438  158.4029 C.ar    1  UNL1        0.0479
      5 C         142.0820  137.9050  158.5150 C.ar    1  UNL1        0.0147
      6 C         142.5847  136.9100  157.5114 C.ar    1  UNL1        0.0058
      7 N         140.1841  139.4389  159.4066 N.pl3   1  UNL1       -0.3041
      8 C         140.1919  139.0996  160.8677 C.3     1  UNL1        0.1123
      9 C         139.6893  140.0946  161.8714 C.3     1  UNL1        0.1151
     10 N         139.1789  141.4288  161.4139 N.am    1  UNL1       -0.2726
     11 C         138.6763  142.4239  162.4176 C.2     1  UNL1        0.2493
     12 O         138.1659  143.7581  161.9602 O.2     1  UNL1       -0.2699
     13 C         139.1711  141.7681  159.9528 C.3     1  UNL1        0.1151
     14 C         139.6737  140.7731  158.9492 C.3     1  UNL1        0.1123
     15 C         138.6841  142.0846  163.8787 C.2     1  UNL1        0.0579
     16 C         139.9681  142.1313  164.6527 C.2     1  UNL1        0.0047
     17 C         139.9759  141.7920  166.1138 C.ar    1  UNL1        0.0003
     18 C         140.4851  142.7887  167.1125 C.ar    1  UNL1        0.0023
     19 C         140.4928  142.4494  168.5736 C.ar    1  UNL1        0.0296
     20 C         139.9914  141.1135  169.0360 C.ar    1  UNL1        0.1401
     21 F         139.9992  140.7742  170.4971 F       1  UNL1       -0.2042
     22 C         139.4822  140.1168  168.0373 C.ar    1  UNL1        0.0296
     23 C         139.4744  140.4560  166.5762 C.ar    1  UNL1        0.0023
     24 N         141.8024  134.0155  155.5055 N.am    1  UNL1       -0.2794
     25 C         142.1946  135.4588  155.3919 C.2     1  UNL1        0.2495
     26 O         143.0894  135.9072  154.2747 O.2     1  UNL1       -0.2698
     27 H         141.2151  133.7212  156.2388 H       1  UNL1        0.1552
     28 N         143.9029  132.0228  156.2910 N.pl3   1  UNL1       -0.3560
     29 C         143.3553  132.0241  154.8946 C.ar    1  UNL1        0.0552
     30 C         143.8578  131.0292  153.8909 C.ar    1  UNL1        0.0153
     31 C         143.3101  131.0305  152.4945 C.ar    1  UNL1        0.0013
     32 C         142.2599  132.0268  152.1017 C.ar    1  UNL1        0.0014
     33 C         141.7573  133.0218  153.1054 C.ar    1  UNL1        0.0159
     34 C         142.3050  133.0204  154.5018 C.ar    1  UNL1        0.0636
     35 H         144.5923  131.3689  156.5488 H       1  UNL1        0.1424
     36 H         143.5731  132.6759  156.9498 H       1  UNL1        0.1424
@<TRIPOS>BOND
     1    28    29    1
     2    29    30   ar
     3    30    31   ar
     4    31    32   ar
     5    32    33   ar
     6    33    34   ar
     7    34    24    1
     8    24    25   am
     9    25    26    2
    10    25     1    1
    11     1     2   ar
    12     2     3   ar
    13     3     4   ar
    14     4     7    1
    15     7     8    1
    16     8     9    1
    17     9    10    1
    18    10    11   am
    19    11    12    2
    20    11    15    1
    21    15    16    2
    22    16    17    1
    23    17    18   ar
    24    18    19   ar
    25    19    20   ar
    26    20    21    1
    27    20    22   ar
    28    22    23   ar
    29    10    13    1
    30    13    14    1
    31     4     5   ar
    32     5     6   ar
    33    34    29   ar
    34     6     1   ar
    35    14     7    1
    36    23    17   ar
    37    28    35    1
    38    28    36    1
    39    24    27    1
@<TRIPOS>MOLECULE
*****
 36 39 0 0 0
SMALL
GASTEIGER

@<TRIPOS>ATOM
      1 C         142.0481  133.3522  155.6003 C.ar    1  UNL1        0.0538
      2 C         142.9825  133.4876  156.7659 C.ar    1  UNL1        0.0058
      3 C         143.2512  134.8390  157.3588 C.ar    1  UNL1        0.0147
      4 C         142.5854  136.0550  156.7861 C.ar    1  UNL1        0.0479
      5 C         141.6510  135.9196  155.6206 C.ar    1  UNL1        0.0147
      6 C         141.3823  134.5682  155.0277 C.ar    1  UNL1        0.0058
      7 N         142.8540  137.4064  157.3790 N.pl3   1  UNL1       -0.3041
      8 C         142.5762  137.6568  158.8316 C.3     1  UNL1        0.1123
      9 C         142.8448  139.0082  159.4246 C.3     1  UNL1        0.1151
     10 N         143.3912  140.1092  158.5648 N.am    1  UNL1       -0.2726
     11 C         143.6598  141.4607  159.1577 C.2     1  UNL1        0.2493
     12 O         144.2062  142.5617  158.2980 O.2     1  UNL1       -0.2699
     13 C         143.6690  139.8588  157.1122 C.3     1  UNL1        0.1151
     14 C         143.4004  138.5074  156.5193 C.3     1  UNL1        0.1123
     15 C         143.3820  141.7110  160.6104 C.2     1  UNL1        0.0579
     16 C         144.4977  141.6405  161.6104 C.2     1  UNL1        0.0047
     17 C         144.2199  141.8908  163.0630 C.ar    1  UNL1        0.0003
     18 C         144.6413  143.1842  163.6952 C.ar    1  UNL1        0.0023
     19 C         144.3635  143.4345  165.1478 C.ar    1  UNL1        0.0296
     20 C         143.6642  142.3916  165.9683 C.ar    1  UNL1        0.1401
     21 F         143.3864  142.6419  167.4209 F       1  UNL1       -0.2042
     22 C         143.2428  141.0982  165.3361 C.ar    1  UNL1        0.0296
     23 C         143.5206  140.8478  163.8835 C.ar    1  UNL1        0.0023
     24 N         140.3762  131.4746  154.9451 N.am    1  UNL1       -0.2794
     25 C         141.7795  132.0008  155.0074 C.2     1  UNL1        0.2495
     26 O         142.9142  131.1755  154.4769 O.2     1  UNL1       -0.2698
     27 H         139.6315  132.0162  155.2932 H       1  UNL1        0.1552
     28 N         140.1120  131.1661  151.9727 N.pl3   1  UNL1       -0.3560
     29 C         139.9755  129.9689  152.8660 C.ar    1  UNL1        0.0552
     30 C         139.7069  128.6175  152.2732 C.ar    1  UNL1        0.0153
     31 C         139.5704  127.4203  153.1665 C.ar    1  UNL1        0.0013
     32 C         139.7025  127.5745  154.6527 C.ar    1  UNL1        0.0014
     33 C         139.9711  128.9259  155.2455 C.ar    1  UNL1        0.0159
     34 C         140.1076  130.1231  154.3522 C.ar    1  UNL1        0.0636
     35 H         140.0254  131.0649  150.9972 H       1  UNL1        0.1424
     36 H         140.2883  132.0531  152.3618 H       1  UNL1        0.1424
@<TRIPOS>BOND
     1    28    29    1
     2    29    30   ar
     3    30    31   ar
     4    31    32   ar
     5    32    33   ar
     6    33    34   ar
     7    34    24    1
     8    24    25   am
     9    25    26    2
    10    25     1    1
    11     1     2   ar
    12     2     3   ar
    13     3     4   ar
    14     4     7    1
    15     7     8    1
    16     8     9    1
    17     9    10    1
    18    10    11   am
    19    11    12    2
    20    11    15    1
    21    15    16    2
    22    16    17    1
    23    17    18   ar
    24    18    19   ar
    25    19    20   ar
    26    20    21    1
    27    20    22   ar
    28    22    23   ar
    29    10    13    1
    30    13    14    1
    31     4     5   ar
    32     5     6   ar
    33    34    29   ar
    34     6     1   ar
    35    14     7    1
    36    23    17   ar
    37    28    35    1
    38    28    36    1
    39    24    27    1
@<TRIPOS>MOLECULE
*****
 36 39 0 0 0
SMALL
GASTEIGER

@<TRIPOS>ATOM
      1 C         142.8796  137.6999  157.2901 C.ar    1  UNL1        0.0538
      2 C         142.6399  137.2447  158.6991 C.ar    1  UNL1        0.0058
      3 C         142.7858  138.2132  159.8352 C.ar    1  UNL1        0.0147
      4 C         143.1714  139.6368  159.5622 C.ar    1  UNL1        0.0479
      5 C         143.4110  140.0920  158.1532 C.ar    1  UNL1        0.0147
      6 C         143.2651  139.1235  157.0171 C.ar    1  UNL1        0.0058
      7 N         143.3173  140.6054  160.6983 N.pl3   1  UNL1       -0.3041
      8 C         143.2001  140.1239  162.1141 C.3     1  UNL1        0.1123
      9 C         143.3460  141.0923  163.2502 C.3     1  UNL1        0.1151
     10 N         143.6091  142.5423  162.9705 N.am    1  UNL1       -0.2726
     11 C         143.7550  143.5109  164.1066 C.2     1  UNL1        0.2493
     12 O         144.0182  144.9609  163.8269 O.2     1  UNL1       -0.2699
     13 C         143.7263  143.0238  161.5547 C.3     1  UNL1        0.1151
     14 C         143.5804  142.0554  160.4186 C.3     1  UNL1        0.1123
     15 C         143.6378  143.0294  165.5224 C.2     1  UNL1        0.0579
     16 C         142.2891  142.7138  166.0980 C.2     1  UNL1        0.0047
     17 C         142.1719  142.2323  167.5138 C.ar    1  UNL1        0.0003
     18 C         140.8876  141.6255  167.9957 C.ar    1  UNL1        0.0023
     19 C         140.7703  141.1440  169.4114 C.ar    1  UNL1        0.0296
     20 C         141.9374  141.2692  170.3453 C.ar    1  UNL1        0.1401
     21 F         141.8202  140.7877  171.7611 F       1  UNL1       -0.2042
     22 C         143.2218  141.8761  169.8634 C.ar    1  UNL1        0.0296
     23 C         143.3391  142.3576  168.4476 C.ar    1  UNL1        0.0023
     24 N         141.4932  135.8964  156.0348 N.am    1  UNL1       -0.2794
     25 C         142.7336  136.7313  156.1539 C.2     1  UNL1        0.2495
     26 O         143.8282  136.5977  155.1370 O.2     1  UNL1       -0.2698
     27 H         140.7748  135.9842  156.7022 H       1  UNL1        0.1552
     28 N         140.5919  136.8666  153.3428 N.pl3   1  UNL1       -0.3560
     29 C         140.8966  135.4130  153.5527 C.ar    1  UNL1        0.0552
     30 C         140.7507  134.4444  152.4167 C.ar    1  UNL1        0.0153
     31 C         141.0555  132.9908  152.6266 C.ar    1  UNL1        0.0013
     32 C         141.5061  132.5057  153.9726 C.ar    1  UNL1        0.0014
     33 C         141.6520  133.4742  155.1086 C.ar    1  UNL1        0.0159
     34 C         141.3473  134.9279  154.8987 C.ar    1  UNL1        0.0636
     35 H         140.2962  137.1850  152.4594 H       1  UNL1        0.1424
     36 H         140.6877  137.5023  154.0885 H       1  UNL1        0.1424
@<TRIPOS>BOND
     1    28    29    1
     2    29    30   ar
     3    30    31   ar
     4    31    32   ar
     5    32    33   ar
     6    33    34   ar
     7    34    24    1
     8    24    25   am
     9    25    26    2
    10    25     1    1
    11     1     2   ar
    12     2     3   ar
    13     3     4   ar
    14     4     7    1
    15     7     8    1
    16     8     9    1
    17     9    10    1
    18    10    11   am
    19    11    12    2
    20    11    15    1
    21    15    16    2
    22    16    17    1
    23    17    18   ar
    24    18    19   ar
    25    19    20   ar
    26    20    21    1
    27    20    22   ar
    28    22    23   ar
    29    10    13    1
    30    13    14    1
    31     4     5   ar
    32     5     6   ar
    33    34    29   ar
    34     6     1   ar
    35    14     7    1
    36    23    17   ar
    37    28    35    1
    38    28    36    1
    39    24    27    1
