@<TRIPOS>MOLECULE
*****
 46 52 0 0 0
SMALL
GASTEIGER

@<TRIPOS>ATOM
      1 C         140.8995  141.8669  161.6312 C.3     1  UNL1        0.0235
      2 C         141.1696  142.4572  162.9835 C.3     1  UNL1        0.0257
      3 C         141.0814  141.5965  164.2088 C.3     1  UNL1        0.0940
      4 N         140.7231  140.1455  164.0819 N.am    1  UNL1       -0.2761
      5 C         140.6349  139.2848  165.3072 C.2     1  UNL1        0.2490
      6 O         140.2765  137.8338  165.1803 O.2     1  UNL1       -0.2699
      7 C         140.4529  139.5552  162.7297 C.3     1  UNL1        0.0940
      8 C         140.5411  140.4158  161.5044 C.3     1  UNL1        0.0257
      9 C         140.7337  141.7686  160.1436 C.ar    1  UNL1       -0.0226
     10 C         141.7689  141.0632  159.3187 C.ar    1  UNL1       -0.0043
     11 C         141.6032  140.9649  157.8310 C.ar    1  UNL1       -0.0003
     12 C         140.4022  141.5721  157.1685 C.ar    1  UNL1       -0.0000
     13 C         139.3670  142.2776  157.9935 C.ar    1  UNL1       -0.0003
     14 C         139.5328  142.3759  159.4811 C.ar    1  UNL1       -0.0043
     15 C         140.9051  139.8752  166.6594 C.ar    1  UNL1        0.0537
     16 C         139.7747  140.4277  167.4761 C.ar    1  UNL1        0.0059
     17 C         140.0450  141.0181  168.8283 C.ar    1  UNL1        0.0200
     18 C         141.4457  141.0559  169.3638 C.ar    1  UNL1        0.1217
     19 C         142.5760  140.5033  168.5471 C.ar    1  UNL1        0.0200
     20 C         142.3057  139.9130  167.1950 C.ar    1  UNL1        0.0059
     21 S         141.7159  141.6463  170.7160 S.O2    1  UNL1        0.0572
     22 N         141.9862  142.2367  172.0682 N.3     1  UNL1       -0.2035
     23 O         140.4130  141.0966  171.2165 O.2     1  UNL1       -0.1532
     24 O         143.0187  142.1960  170.2155 O.2     1  UNL1       -0.1532
     25 H         141.2122  142.0181  172.6955 H       1  UNL1        0.1442
     26 H         142.0806  143.2489  171.9845 H       1  UNL1        0.1442
     27 C         141.2003  143.2838  161.2415 C.3     1  UNL1        0.0215
     28 C         142.5830  143.8351  161.4263 C.3     1  UNL1        0.0723
     29 C         142.6617  143.8169  161.5609 C.3     1  UNL1        0.0893
     30 C         143.3465  142.6513  160.9108 C.3     1  UNL1        0.0386
     31 C         144.3723  141.8644  161.6716 C.3     1  UNL1        0.0594
     32 C         145.2864  141.3915  162.7627 C.3     1  UNL1        0.0174
     33 C         145.0879  142.2831  163.9526 C.3     1  UNL1        0.0174
     34 C         144.0511  143.3070  163.5968 C.3     1  UNL1        0.0594
     35 C         143.0027  144.1955  162.9717 C.3     1  UNL1        0.0386
     36 N         143.6087  143.0482  162.1870 N.3     1  UNL1       -0.2751
     37 C         140.3830  145.1455  162.8791 C.3     1  UNL1        0.0718
     38 C         140.4503  145.3086  161.3895 C.ar    1  UNL1        0.1207
     39 N         139.6974  145.9644  160.2701 N.ar    1  UNL1       -0.2309
     40 C         140.4178  145.6649  158.9890 C.ar    1  UNL1        0.0983
     41 C         140.1376  146.0492  157.5664 C.ar    1  UNL1        0.0206
     42 C         141.0555  145.5927  156.4715 C.ar    1  UNL1        0.0016
     43 C         142.2537  144.7517  156.7991 C.ar    1  UNL1        0.0016
     44 C         142.5339  144.3674  158.2217 C.ar    1  UNL1        0.0188
     45 C         141.6159  144.8240  159.3166 C.ar    1  UNL1        0.0785
     46 N         141.6360  144.6038  160.8002 N.ar    1  UNL1       -0.3167
@<TRIPOS>BOND
     1    37    38    1
     2    38    39   ar
     3    39    40   ar
     4    40    41   ar
     5    41    42   ar
     6    42    43   ar
     7    43    44   ar
     8    44    45   ar
     9    45    46   ar
    10    46    29    1
    11    29    30    1
    12    30    31    1
    13    31    32    1
    14    32    33    1
    15    33    34    1
    16    34    35    1
    17    34    36    1
    18    36    28    1
    19    28    27    1
    20    27     1    1
    21     1     9    1
    22     9    10   ar
    23    10    11   ar
    24    11    12   ar
    25    12    13   ar
    26    13    14   ar
    27     1     2    1
    28     2     3    1
    29     3     4    1
    30     4     5   am
    31     5     6    2
    32     5    15    1
    33    15    16   ar
    34    16    17   ar
    35    17    18   ar
    36    18    21    1
    37    21    22    1
    38    21    23    2
    39    21    24    2
    40    18    19   ar
    41    19    20   ar
    42     4     7    1
    43     7     8    1
    44    46    38   ar
    45    35    29    1
    46     8     1    1
    47    45    40   ar
    48    36    31    1
    49    14     9   ar
    50    20    15   ar
    51    22    25    1
    52    22    26    1
@<TRIPOS>MOLECULE
*****
 46 52 0 0 0
SMALL
GASTEIGER

@<TRIPOS>ATOM
      1 C         140.2316  141.6291  161.6500 C.3     1  UNL1        0.0235
      2 C         140.8489  141.9618  162.9760 C.3     1  UNL1        0.0257
      3 C         140.5378  141.1227  164.1798 C.3     1  UNL1        0.0940
      4 N         139.6094  139.9509  164.0577 N.am    1  UNL1       -0.2761
      5 C         139.2982  139.1119  165.2615 C.2     1  UNL1        0.2490
      6 O         138.3698  137.9401  165.1394 O.2     1  UNL1       -0.2699
      7 C         138.9921  139.6182  162.7317 C.3     1  UNL1        0.0940
      8 C         139.3032  140.4572  161.5279 C.3     1  UNL1        0.0257
      9 C         139.8963  141.7134  160.1903 C.ar    1  UNL1       -0.0226
     10 C         140.8940  141.2639  159.1644 C.ar    1  UNL1       -0.0043
     11 C         140.5586  141.3482  157.7048 C.ar    1  UNL1       -0.0003
     12 C         139.2256  141.8821  157.2712 C.ar    1  UNL1       -0.0000
     13 C         138.2279  142.3316  158.2972 C.ar    1  UNL1       -0.0003
     14 C         138.5634  142.2473  159.7568 C.ar    1  UNL1       -0.0043
     15 C         139.9155  139.4447  166.5875 C.ar    1  UNL1        0.0537
     16 C         139.0442  139.8427  167.7417 C.ar    1  UNL1        0.0059
     17 C         139.6616  140.1755  169.0676 C.ar    1  UNL1        0.0200
     18 C         141.1503  140.1103  169.2393 C.ar    1  UNL1        0.1217
     19 C         142.0217  139.7123  168.0850 C.ar    1  UNL1        0.0200
     20 C         141.4043  139.3795  166.7591 C.ar    1  UNL1        0.0059
     21 S         141.7676  140.4431  170.5652 S.O2    1  UNL1        0.0572
     22 N         142.3850  140.7759  171.8912 N.3     1  UNL1       -0.2035
     23 O         140.4024  140.6692  171.1442 O.2     1  UNL1       -0.1532
     24 O         143.1328  140.2171  169.9863 O.2     1  UNL1       -0.1532
     25 H         141.6497  140.9963  172.5629 H       1  UNL1        0.1442
     26 H         143.0022  141.5812  171.7863 H       1  UNL1        0.1442
     27 C         141.0435  142.8301  161.2652 C.3     1  UNL1        0.0215
     28 C         140.6908  144.1810  161.8137 C.3     1  UNL1        0.0723
     29 C         140.6756  144.2068  161.9678 C.3     1  UNL1        0.0893
     30 C         139.1995  144.0249  161.7724 C.3     1  UNL1        0.0386
     31 C         138.2683  144.1395  162.9428 C.3     1  UNL1        0.0594
     32 C         137.7433  144.3337  164.3344 C.3     1  UNL1        0.0174
     33 C         138.9101  144.6098  165.2357 C.3     1  UNL1        0.0174
     34 C         140.1562  144.5862  164.4012 C.3     1  UNL1        0.0594
     35 C         141.2204  144.5031  163.3335 C.3     1  UNL1        0.0386
     36 N         139.7596  144.2955  162.9840 N.3     1  UNL1       -0.2751
     37 C         143.3496  142.9822  162.1815 C.3     1  UNL1        0.0718
     38 C         142.9788  143.4862  160.8183 C.ar    1  UNL1        0.1207
     39 N         143.5493  143.5831  159.4344 N.ar    1  UNL1       -0.2309
     40 C         142.5300  144.2490  158.5583 C.ar    1  UNL1        0.0983
     41 C         142.5399  144.6095  157.1023 C.ar    1  UNL1        0.0206
     42 C         141.3493  145.2847  156.4887 C.ar    1  UNL1        0.0016
     43 C         140.1488  145.5993  157.3311 C.ar    1  UNL1        0.0016
     44 C         140.1388  145.2389  158.7871 C.ar    1  UNL1        0.0188
     45 C         141.3294  144.5637  159.4007 C.ar    1  UNL1        0.0785
     46 N         141.6068  144.0923  160.7974 N.ar    1  UNL1       -0.3167
@<TRIPOS>BOND
     1    37    38    1
     2    38    39   ar
     3    39    40   ar
     4    40    41   ar
     5    41    42   ar
     6    42    43   ar
     7    43    44   ar
     8    44    45   ar
     9    45    46   ar
    10    46    29    1
    11    29    30    1
    12    30    31    1
    13    31    32    1
    14    32    33    1
    15    33    34    1
    16    34    35    1
    17    34    36    1
    18    36    28    1
    19    28    27    1
    20    27     1    1
    21     1     9    1
    22     9    10   ar
    23    10    11   ar
    24    11    12   ar
    25    12    13   ar
    26    13    14   ar
    27     1     2    1
    28     2     3    1
    29     3     4    1
    30     4     5   am
    31     5     6    2
    32     5    15    1
    33    15    16   ar
    34    16    17   ar
    35    17    18   ar
    36    18    21    1
    37    21    22    1
    38    21    23    2
    39    21    24    2
    40    18    19   ar
    41    19    20   ar
    42     4     7    1
    43     7     8    1
    44    46    38   ar
    45    35    29    1
    46     8     1    1
    47    45    40   ar
    48    36    31    1
    49    14     9   ar
    50    20    15   ar
    51    22    25    1
    52    22    26    1
@<TRIPOS>MOLECULE
*****
 46 52 0 0 0
SMALL
GASTEIGER

@<TRIPOS>ATOM
      1 C         140.1788  141.6618  161.6676 C.3     1  UNL1        0.0235
      2 C         140.7960  141.9953  162.9935 C.3     1  UNL1        0.0257
      3 C         140.5003  141.1453  164.1935 C.3     1  UNL1        0.0940
      4 N         139.5875  139.9617  164.0676 N.am    1  UNL1       -0.2761
      5 C         139.2918  139.1116  165.2676 C.2     1  UNL1        0.2490
      6 O         138.3790  137.9280  165.1418 O.2     1  UNL1       -0.2699
      7 C         138.9703  139.6282  162.7418 C.3     1  UNL1        0.0940
      8 C         139.2660  140.4781  161.5418 C.3     1  UNL1        0.0257
      9 C         139.8375  141.7499  160.2096 C.ar    1  UNL1       -0.0226
     10 C         138.5059  142.2926  159.7825 C.ar    1  UNL1       -0.0043
     11 C         138.1646  142.3807  158.3245 C.ar    1  UNL1       -0.0003
     12 C         139.1549  141.9261  157.2936 C.ar    1  UNL1       -0.0000
     13 C         140.4865  141.3834  157.7207 C.ar    1  UNL1       -0.0003
     14 C         140.8277  141.2953  159.1788 C.ar    1  UNL1       -0.0043
     15 C         139.9090  139.4452  166.5934 C.ar    1  UNL1        0.0537
     16 C         141.3989  139.3972  166.7605 C.ar    1  UNL1        0.0059
     17 C         142.0160  139.7308  168.0864 C.ar    1  UNL1        0.0200
     18 C         141.1433  140.1124  169.2451 C.ar    1  UNL1        0.1217
     19 C         139.6534  140.1605  169.0780 C.ar    1  UNL1        0.0200
     20 C         139.0363  139.8269  167.7522 C.ar    1  UNL1        0.0059
     21 S         141.7605  140.4460  170.5709 S.O2    1  UNL1        0.0572
     22 N         142.3778  140.7796  171.8967 N.3     1  UNL1       -0.2035
     23 O         140.3949  140.6643  171.1519 O.2     1  UNL1       -0.1532
     24 O         143.1261  140.2278  169.9900 O.2     1  UNL1       -0.1532
     25 H         141.6422  140.9951  172.5697 H       1  UNL1        0.1442
     26 H         142.9908  141.5882  171.7925 H       1  UNL1        0.1442
     27 C         140.9731  142.8759  161.2871 C.3     1  UNL1        0.0215
     28 C         140.5740  144.2260  161.8050 C.3     1  UNL1        0.0723
     29 C         140.5609  144.2539  161.9590 C.3     1  UNL1        0.0893
     30 C         139.0870  144.0291  161.7940 C.3     1  UNL1        0.0386
     31 C         138.1744  144.1379  162.9795 C.3     1  UNL1        0.0594
     32 C         137.6696  144.3410  164.3774 C.3     1  UNL1        0.0174
     33 C         138.8447  144.6634  165.2522 C.3     1  UNL1        0.0174
     34 C         140.0757  144.6595  164.3952 C.3     1  UNL1        0.0594
     35 C         141.1221  144.5875  163.3094 C.3     1  UNL1        0.0386
     36 N         139.6615  144.3348  162.9905 N.3     1  UNL1       -0.2751
     37 C         139.9559  145.5268  159.3687 C.3     1  UNL1        0.0718
     38 C         141.2432  144.7588  159.4243 C.ar    1  UNL1        0.1207
     39 N         142.4039  144.3965  158.5460 N.ar    1  UNL1       -0.2309
     40 C         143.3516  143.5588  159.3524 C.ar    1  UNL1        0.0983
     41 C         144.6639  142.9175  159.0110 C.ar    1  UNL1        0.0206
     42 C         145.4011  142.1208  160.0462 C.ar    1  UNL1        0.0016
     43 C         144.8261  141.9655  161.4229 C.ar    1  UNL1        0.0016
     44 C         143.5138  142.6068  161.7643 C.ar    1  UNL1        0.0188
     45 C         142.7766  143.4035  160.7290 C.ar    1  UNL1        0.0785
     46 N         141.4735  144.1451  160.7734 N.ar    1  UNL1       -0.3167
@<TRIPOS>BOND
     1    37    38    1
     2    38    39   ar
     3    39    40   ar
     4    40    41   ar
     5    41    42   ar
     6    42    43   ar
     7    43    44   ar
     8    44    45   ar
     9    45    46   ar
    10    46    29    1
    11    29    30    1
    12    30    31    1
    13    31    32    1
    14    32    33    1
    15    33    34    1
    16    34    35    1
    17    34    36    1
    18    36    28    1
    19    28    27    1
    20    27     1    1
    21     1     9    1
    22     9    10   ar
    23    10    11   ar
    24    11    12   ar
    25    12    13   ar
    26    13    14   ar
    27     1     2    1
    28     2     3    1
    29     3     4    1
    30     4     5   am
    31     5     6    2
    32     5    15    1
    33    15    16   ar
    34    16    17   ar
    35    17    18   ar
    36    18    21    1
    37    21    22    1
    38    21    23    2
    39    21    24    2
    40    18    19   ar
    41    19    20   ar
    42     4     7    1
    43     7     8    1
    44    46    38   ar
    45    35    29    1
    46     8     1    1
    47    45    40   ar
    48    36    31    1
    49    14     9   ar
    50    20    15   ar
    51    22    25    1
    52    22    26    1
@<TRIPOS>MOLECULE
*****
 46 52 0 0 0
SMALL
GASTEIGER

@<TRIPOS>ATOM
      1 C         140.9722  140.8622  161.8360 C.3     1  UNL1        0.0235
      2 C         141.4293  141.5001  163.1144 C.3     1  UNL1        0.0257
      3 C         141.0350  140.9036  164.4330 C.3     1  UNL1        0.0940
      4 N         140.1836  139.6693  164.4733 N.am    1  UNL1       -0.2761
      5 C         139.7893  139.0729  165.7919 C.2     1  UNL1        0.2490
      6 O         138.9379  137.8386  165.8322 O.2     1  UNL1       -0.2699
      7 C         139.7265  139.0315  163.1949 C.3     1  UNL1        0.0940
      8 C         140.1208  139.6278  161.8763 C.3     1  UNL1        0.0257
      9 C         140.7886  140.6243  160.3663 C.ar    1  UNL1       -0.0226
     10 C         139.8789  141.5126  159.5706 C.ar    1  UNL1       -0.0043
     11 C         139.6953  141.2746  158.1010 C.ar    1  UNL1       -0.0003
     12 C         140.4215  140.1483  157.4272 C.ar    1  UNL1       -0.0000
     13 C         141.3313  139.2599  158.2230 C.ar    1  UNL1       -0.0003
     14 C         141.5148  139.4980  159.6926 C.ar    1  UNL1       -0.0043
     15 C         140.2464  139.7108  167.0702 C.ar    1  UNL1        0.0537
     16 C         139.2422  140.1077  168.1114 C.ar    1  UNL1        0.0059
     17 C         139.6994  140.7456  169.3897 C.ar    1  UNL1        0.0200
     18 C         141.1608  140.9867  169.6268 C.ar    1  UNL1        0.1217
     19 C         142.1650  140.5898  168.5856 C.ar    1  UNL1        0.0200
     20 C         141.7078  139.9519  167.3073 C.ar    1  UNL1        0.0059
     21 S         141.6179  141.6246  170.9051 S.O2    1  UNL1        0.0572
     22 N         142.0751  142.2626  172.1834 N.3     1  UNL1       -0.2035
     23 O         140.4782  140.9782  171.6354 O.2     1  UNL1       -0.1532
     24 O         142.7576  142.2710  170.1749 O.2     1  UNL1       -0.1532
     25 H         141.4481  141.9928  172.9413 H       1  UNL1        0.1442
     26 H         142.0658  143.2772  172.0793 H       1  UNL1        0.1442
     27 C         141.7598  142.0138  161.2853 C.3     1  UNL1        0.0215
     28 C         143.2483  142.0591  161.4658 C.3     1  UNL1        0.0723
     29 C         143.3195  142.0358  161.6037 C.3     1  UNL1        0.0893
     30 C         143.4737  140.6018  161.1913 C.3     1  UNL1        0.0386
     31 C         144.1480  139.6257  162.1093 C.3     1  UNL1        0.0594
     32 C         144.8545  139.0349  163.2932 C.3     1  UNL1        0.0174
     33 C         145.0657  140.1271  164.2995 C.3     1  UNL1        0.0174
     34 C         144.4897  141.3929  163.7374 C.3     1  UNL1        0.0594
     35 C         143.8395  142.4935  162.9341 C.3     1  UNL1        0.0386
     36 N         143.9225  141.0831  162.3837 N.3     1  UNL1       -0.2751
     37 C         143.8308  142.0968  158.7002 C.3     1  UNL1        0.0718
     38 C         142.8468  143.1112  159.2027 C.ar    1  UNL1        0.1207
     39 N         141.9771  144.2207  158.6901 N.ar    1  UNL1       -0.2309
     40 C         141.2381  144.8070  159.8563 C.ar    1  UNL1        0.0983
     41 C         140.2425  145.9246  159.9545 C.ar    1  UNL1        0.0206
     42 C         139.6598  146.2951  161.2861 C.ar    1  UNL1        0.0016
     43 C         140.0727  145.5479  162.5195 C.ar    1  UNL1        0.0016
     44 C         141.0683  144.4303  162.4213 C.ar    1  UNL1        0.0188
     45 C         141.6510  144.0598  161.0898 C.ar    1  UNL1        0.0785
     46 N         142.6452  143.0118  160.6858 N.ar    1  UNL1       -0.3167
@<TRIPOS>BOND
     1    37    38    1
     2    38    39   ar
     3    39    40   ar
     4    40    41   ar
     5    41    42   ar
     6    42    43   ar
     7    43    44   ar
     8    44    45   ar
     9    45    46   ar
    10    46    29    1
    11    29    30    1
    12    30    31    1
    13    31    32    1
    14    32    33    1
    15    33    34    1
    16    34    35    1
    17    34    36    1
    18    36    28    1
    19    28    27    1
    20    27     1    1
    21     1     9    1
    22     9    10   ar
    23    10    11   ar
    24    11    12   ar
    25    12    13   ar
    26    13    14   ar
    27     1     2    1
    28     2     3    1
    29     3     4    1
    30     4     5   am
    31     5     6    2
    32     5    15    1
    33    15    16   ar
    34    16    17   ar
    35    17    18   ar
    36    18    21    1
    37    21    22    1
    38    21    23    2
    39    21    24    2
    40    18    19   ar
    41    19    20   ar
    42     4     7    1
    43     7     8    1
    44    46    38   ar
    45    35    29    1
    46     8     1    1
    47    45    40   ar
    48    36    31    1
    49    14     9   ar
    50    20    15   ar
    51    22    25    1
    52    22    26    1
@<TRIPOS>MOLECULE
*****
 46 52 0 0 0
SMALL
GASTEIGER

@<TRIPOS>ATOM
      1 C         140.1111  141.7396  162.3793 C.3     1  UNL1        0.0235
      2 C         140.8810  140.5421  161.9067 C.3     1  UNL1        0.0257
      3 C         140.9819  140.2464  160.4396 C.3     1  UNL1        0.0940
      4 N         140.3130  141.1483  159.4450 N.am    1  UNL1       -0.2761
      5 C         140.4139  140.8527  157.9779 C.2     1  UNL1        0.2490
      6 O         139.7449  141.7546  156.9833 O.2     1  UNL1       -0.2699
      7 C         139.5431  142.3458  159.9176 C.3     1  UNL1        0.0940
      8 C         139.4422  142.6415  161.3846 C.3     1  UNL1        0.0257
      9 C         139.4998  142.7452  163.3094 C.ar    1  UNL1       -0.0226
     10 C         140.0888  144.1203  163.4193 C.ar    1  UNL1       -0.0043
     11 C         139.4775  145.1259  164.3495 C.ar    1  UNL1       -0.0003
     12 C         138.2772  144.7563  165.1696 C.ar    1  UNL1       -0.0000
     13 C         137.6882  143.3812  165.0597 C.ar    1  UNL1       -0.0003
     14 C         138.2996  142.3756  164.1295 C.ar    1  UNL1       -0.0043
     15 C         141.1837  139.6552  157.5054 C.ar    1  UNL1        0.0537
     16 C         142.6538  139.7693  157.2302 C.ar    1  UNL1        0.0059
     17 C         143.4236  138.5717  156.7577 C.ar    1  UNL1        0.0200
     18 C         142.7233  137.2600  156.5604 C.ar    1  UNL1        0.1217
     19 C         141.2532  137.1458  156.8357 C.ar    1  UNL1        0.0200
     20 C         140.4834  138.3434  157.3081 C.ar    1  UNL1        0.0059
     21 S         143.4931  136.0625  156.0879 S.O2    1  UNL1        0.0572
     22 N         144.2631  134.8650  155.6154 N.3     1  UNL1       -0.2035
     23 O         142.3441  135.1750  156.4648 O.2     1  UNL1       -0.1532
     24 O         144.6422  136.9500  155.7111 O.2     1  UNL1       -0.1532
     25 H         143.7009  134.0246  155.7499 H       1  UNL1        0.1442
     26 H         145.1282  134.7845  156.1498 H       1  UNL1        0.1442
     27 C         140.5677  141.1869  163.6968 C.3     1  UNL1        0.0215
     28 C         142.0095  141.2950  164.0963 C.3     1  UNL1        0.0723
     29 C         142.1216  141.2498  163.9961 C.3     1  UNL1        0.0893
     30 C         142.3051  142.7024  163.6699 C.3     1  UNL1        0.0386
     31 C         143.3336  143.1204  162.6612 C.3     1  UNL1        0.0594
     32 C         144.4298  143.0743  161.6384 C.3     1  UNL1        0.0174
     33 C         144.8117  141.6384  161.4327 C.3     1  UNL1        0.0174
     34 C         143.9516  140.7970  162.3284 C.3     1  UNL1        0.0594
     35 C         142.9665  140.2153  163.3136 C.3     1  UNL1        0.0386
     36 N         143.0380  141.7130  163.0877 N.3     1  UNL1       -0.2751
     37 C         141.5095  142.8513  166.3953 C.3     1  UNL1        0.0718
     38 C         140.7208  141.5838  166.2481 C.ar    1  UNL1        0.1207
     39 N         139.6539  140.8051  166.9589 N.ar    1  UNL1       -0.2309
     40 C         139.3667  139.5718  166.1549 C.ar    1  UNL1        0.0983
     41 C         138.4102  138.4359  166.3665 C.ar    1  UNL1        0.0206
     42 C         138.3432  137.3164  165.3704 C.ar    1  UNL1        0.0016
     43 C         139.2326  137.3329  164.1627 C.ar    1  UNL1        0.0016
     44 C         140.1891  138.4688  163.9511 C.ar    1  UNL1        0.0188
     45 C         140.2562  139.5882  164.9472 C.ar    1  UNL1        0.0785
     46 N         141.0930  140.8317  165.0048 N.ar    1  UNL1       -0.3167
@<TRIPOS>BOND
     1    37    38    1
     2    38    39   ar
     3    39    40   ar
     4    40    41   ar
     5    41    42   ar
     6    42    43   ar
     7    43    44   ar
     8    44    45   ar
     9    45    46   ar
    10    46    29    1
    11    29    30    1
    12    30    31    1
    13    31    32    1
    14    32    33    1
    15    33    34    1
    16    34    35    1
    17    34    36    1
    18    36    28    1
    19    28    27    1
    20    27     1    1
    21     1     9    1
    22     9    10   ar
    23    10    11   ar
    24    11    12   ar
    25    12    13   ar
    26    13    14   ar
    27     1     2    1
    28     2     3    1
    29     3     4    1
    30     4     5   am
    31     5     6    2
    32     5    15    1
    33    15    16   ar
    34    16    17   ar
    35    17    18   ar
    36    18    21    1
    37    21    22    1
    38    21    23    2
    39    21    24    2
    40    18    19   ar
    41    19    20   ar
    42     4     7    1
    43     7     8    1
    44    46    38   ar
    45    35    29    1
    46     8     1    1
    47    45    40   ar
    48    36    31    1
    49    14     9   ar
    50    20    15   ar
    51    22    25    1
    52    22    26    1
