@<TRIPOS>MOLECULE
*****
 44 47 0 0 0
SMALL
GASTEIGER

@<TRIPOS>ATOM
      1 C         142.3228  144.2408  161.5386 C.3     1  UNL1        0.0781
      2 C         143.0672  144.7378  162.7422 C.3     1  UNL1        0.0372
      3 C         144.1993  143.9333  163.3089 C.3     1  UNL1        0.0738
      4 N         144.5871  142.6319  162.6718 N.3     1  UNL1       -0.2725
      5 C         143.8428  142.1349  161.4680 C.3     1  UNL1        0.0738
      6 C         142.7106  142.9394  160.9014 C.3     1  UNL1        0.0372
      7 N         141.1907  145.0453  160.9719 N.am    1  UNL1       -0.2808
      8 C         140.1182  145.5728  161.8784 C.2     1  UNL1        0.2300
      9 O         138.9860  146.3773  161.3117 O.2     1  UNL1       -0.2745
     10 C         140.2486  144.4917  158.6149 C.3     1  UNL1        0.0233
     11 C         141.1309  145.3222  159.4990 C.3     1  UNL1        0.0934
     12 C         140.1779  145.2959  163.3513 C.3     1  UNL1        0.1116
     13 C         139.7706  143.9520  163.8790 C.ar    1  UNL1       -0.0130
     14 C         140.1407  143.5513  165.2762 C.ar    1  UNL1       -0.0025
     15 C         139.7334  142.2076  165.8038 C.ar    1  UNL1        0.0180
     16 C         138.9562  141.2645  164.9341 C.ar    1  UNL1        0.1057
     17 C         138.5861  141.6652  163.5368 C.ar    1  UNL1        0.0180
     18 C         138.9933  143.0090  163.0092 C.ar    1  UNL1       -0.0025
     19 S         138.5489  139.9206  165.4617 S.O2    1  UNL1        0.0104
     20 C         138.1417  138.5769  165.9893 C.3     1  UNL1        0.1816
     21 O         139.0698  140.2952  166.8175 O.2     1  UNL1       -0.1686
     22 O         138.0281  139.5461  164.1058 O.2     1  UNL1       -0.1686
     23 C         145.7193  141.8275  163.2384 C.3     1  UNL1        0.0738
     24 C         145.4381  140.5482  163.9693 C.3     1  UNL1        0.0378
     25 C         144.0235  140.1554  164.2770 C.3     1  UNL1        0.0815
     26 C         143.2010  139.4443  163.2437 C.ar    1  UNL1       -0.0077
     27 C         143.8552  138.4844  162.2947 C.ar    1  UNL1       -0.0030
     28 C         143.0327  137.7733  161.2614 C.ar    1  UNL1       -0.0003
     29 C         141.5559  138.0220  161.1771 C.ar    1  UNL1       -0.0000
     30 C         140.9016  138.9819  162.1260 C.ar    1  UNL1       -0.0003
     31 C         141.7242  139.6931  163.1594 C.ar    1  UNL1       -0.0030
     32 N         143.4315  140.4738  165.6179 N.3     1  UNL1       -0.2678
     33 C         143.4037  141.8911  166.1081 C.3     1  UNL1        0.0917
     34 C         142.8116  142.2095  167.4491 C.3     1  UNL1        0.1131
     35 N         142.2473  141.1105  168.2998 N.3     1  UNL1       -0.1492
     36 C         142.2751  139.6931  167.8095 C.3     1  UNL1        0.1131
     37 C         142.8672  139.3747  166.4686 C.3     1  UNL1        0.0917
     38 S         141.6553  141.4288  169.6407 S.O2    1  UNL1        0.1303
     39 O         142.2908  142.7868  169.5990 O.2     1  UNL1       -0.1495
     40 O         141.0197  140.0707  169.6825 O.2     1  UNL1       -0.1495
     41 C         141.0632  141.7470  170.9817 C.3     1  UNL1        0.5359
     42 F         142.0754  140.8570  171.6398 F       1  UNL1       -0.1493
     43 F         140.0509  142.6370  170.3235 F       1  UNL1       -0.1493
     44 F         140.4711  142.0653  172.3226 F       1  UNL1       -0.1493
@<TRIPOS>BOND
     1    10    11    1
     2    11     7    1
     3     7     8   am
     4     8     9    2
     5     8    12    1
     6    12    13    1
     7    13    14   ar
     8    14    15   ar
     9    15    16   ar
    10    16    19    1
    11    19    20    1
    12    19    21    2
    13    19    22    2
    14    16    17   ar
    15    17    18   ar
    16     7     1    1
    17     1     2    1
    18     2     3    1
    19     3     4    1
    20     4    23    1
    21    23    24    1
    22    25    24    1
    23    25    26    1
    24    26    27   ar
    25    27    28   ar
    26    28    29   ar
    27    29    30   ar
    28    30    31   ar
    29    25    32    1
    30    32    33    1
    31    33    34    1
    32    34    35    1
    33    35    38    1
    34    38    39    2
    35    38    40    2
    36    38    41    1
    37    41    42    1
    38    41    43    1
    39    41    44    1
    40    35    36    1
    41    36    37    1
    42     4     5    1
    43     5     6    1
    44    18    13   ar
    45     6     1    1
    46    31    26   ar
    47    37    32    1
@<TRIPOS>MOLECULE
*****
 44 47 0 0 0
SMALL
GASTEIGER

@<TRIPOS>ATOM
      1 C         140.4158  139.7956  167.1202 C.3     1  UNL1        0.0781
      2 C         138.9564  139.4851  166.9660 C.3     1  UNL1        0.0372
      3 C         138.4784  138.6957  165.7835 C.3     1  UNL1        0.0738
      4 N         139.4598  138.2168  164.7551 N.3     1  UNL1       -0.2725
      5 C         140.9192  138.5274  164.9092 C.3     1  UNL1        0.0738
      6 C         141.3972  139.3167  166.0918 C.3     1  UNL1        0.0372
      7 N         140.8938  140.5850  168.3027 N.am    1  UNL1       -0.2808
      8 C         140.9811  142.0803  168.2206 C.2     1  UNL1        0.2300
      9 O         141.4591  142.8696  169.4031 O.2     1  UNL1       -0.2745
     10 C         142.5616  139.0948  169.6245 C.3     1  UNL1        0.0233
     11 C         141.2844  139.8792  169.5673 C.3     1  UNL1        0.0934
     12 C         140.5905  142.7860  166.9560 C.3     1  UNL1        0.1116
     13 C         141.4990  142.7454  165.7631 C.ar    1  UNL1       -0.0130
     14 C         140.9199  142.6668  164.3816 C.ar    1  UNL1       -0.0025
     15 C         141.8284  142.6262  163.1888 C.ar    1  UNL1        0.0180
     16 C         143.3160  142.6642  163.3774 C.ar    1  UNL1        0.1057
     17 C         143.8951  142.7429  164.7588 C.ar    1  UNL1        0.0180
     18 C         142.9866  142.7835  165.9516 C.ar    1  UNL1       -0.0025
     19 S         144.2245  142.6236  162.1844 S.O2    1  UNL1        0.0104
     20 C         145.1329  142.5831  160.9915 C.3     1  UNL1        0.1816
     21 O         143.5969  143.8825  161.6637 O.2     1  UNL1       -0.1686
     22 O         144.8521  141.3647  162.7052 O.2     1  UNL1       -0.1686
     23 C         138.9818  137.4274  163.5726 C.3     1  UNL1        0.0738
     24 C         138.2056  138.1052  162.4825 C.3     1  UNL1        0.0378
     25 C         138.8476  139.1879  161.6666 C.3     1  UNL1        0.0815
     26 C         138.5295  140.6267  161.9468 C.ar    1  UNL1       -0.0077
     27 C         137.7450  140.9969  163.1706 C.ar    1  UNL1       -0.0030
     28 C         137.4270  142.4357  163.4508 C.ar    1  UNL1       -0.0003
     29 C         137.8932  143.5044  162.5072 C.ar    1  UNL1       -0.0000
     30 C         138.6776  143.1343  161.2834 C.ar    1  UNL1       -0.0003
     31 C         138.9957  141.6954  161.0031 C.ar    1  UNL1       -0.0030
     32 N         139.8076  138.8317  160.5705 N.3     1  UNL1       -0.2678
     33 C         141.2702  138.6897  160.8713 C.3     1  UNL1        0.0917
     34 C         142.2302  138.3336  159.7751 C.3     1  UNL1        0.1131
     35 N         141.7276  138.1195  158.3781 N.3     1  UNL1       -0.1492
     36 C         140.2649  138.2615  158.0773 C.3     1  UNL1        0.1131
     37 C         139.3049  138.6176  159.1734 C.3     1  UNL1        0.0917
     38 S         142.6876  137.7633  157.2819 S.O2    1  UNL1        0.1303
     39 O         141.7100  136.7562  156.7529 O.2     1  UNL1       -0.1495
     40 O         143.6652  138.7704  157.8110 O.2     1  UNL1       -0.1495
     41 C         143.6476  137.4072  156.1858 C.3     1  UNL1        0.5359
     42 F         143.6548  135.9825  156.6549 F       1  UNL1       -0.1493
     43 F         143.6404  138.8319  155.7167 F       1  UNL1       -0.1493
     44 F         144.6076  137.0511  155.0897 F       1  UNL1       -0.1493
@<TRIPOS>BOND
     1    10    11    1
     2    11     7    1
     3     7     8   am
     4     8     9    2
     5     8    12    1
     6    12    13    1
     7    13    14   ar
     8    14    15   ar
     9    15    16   ar
    10    16    19    1
    11    19    20    1
    12    19    21    2
    13    19    22    2
    14    16    17   ar
    15    17    18   ar
    16     7     1    1
    17     1     2    1
    18     2     3    1
    19     3     4    1
    20     4    23    1
    21    23    24    1
    22    25    24    1
    23    25    26    1
    24    26    27   ar
    25    27    28   ar
    26    28    29   ar
    27    29    30   ar
    28    30    31   ar
    29    25    32    1
    30    32    33    1
    31    33    34    1
    32    34    35    1
    33    35    38    1
    34    38    39    2
    35    38    40    2
    36    38    41    1
    37    41    42    1
    38    41    43    1
    39    41    44    1
    40    35    36    1
    41    36    37    1
    42     4     5    1
    43     5     6    1
    44    18    13   ar
    45     6     1    1
    46    31    26   ar
    47    37    32    1
@<TRIPOS>MOLECULE
*****
 44 47 0 0 0
SMALL
GASTEIGER

@<TRIPOS>ATOM
      1 C         142.4875  140.5962  168.0326 C.3     1  UNL1        0.0781
      2 C         142.8122  142.0545  167.8996 C.3     1  UNL1        0.0372
      3 C         143.3540  142.5874  166.6063 C.3     1  UNL1        0.0738
      4 N         143.5710  141.6619  165.4460 N.3     1  UNL1       -0.2725
      5 C         143.2462  140.2035  165.5789 C.3     1  UNL1        0.0738
      6 C         142.7045  139.6706  166.8722 C.3     1  UNL1        0.0372
      7 N         141.9457  140.0633  169.3258 N.am    1  UNL1       -0.2808
      8 C         140.4963  140.2487  169.6650 C.2     1  UNL1        0.2300
      9 O         139.9546  139.7159  170.9583 O.2     1  UNL1       -0.2745
     10 C         142.9859  137.8525  170.2092 C.3     1  UNL1        0.0233
     11 C         142.8533  139.3450  170.2799 C.3     1  UNL1        0.0934
     12 C         139.5888  140.9670  168.7109 C.3     1  UNL1        0.1116
     13 C         139.3073  140.3816  167.3588 C.ar    1  UNL1       -0.0130
     14 C         139.5859  141.1830  166.1218 C.ar    1  UNL1       -0.0025
     15 C         139.3044  140.5975  164.7698 C.ar    1  UNL1        0.0180
     16 C         138.7442  139.2108  164.6548 C.ar    1  UNL1        0.1057
     17 C         138.4656  138.4095  165.8918 C.ar    1  UNL1        0.0180
     18 C         138.7471  138.9949  167.2438 C.ar    1  UNL1       -0.0025
     19 S         138.4627  138.6254  163.3026 S.O2    1  UNL1        0.0104
     20 C         138.1812  138.0400  161.9506 C.3     1  UNL1        0.1816
     21 O         139.0480  137.3178  163.7470 O.2     1  UNL1       -0.1686
     22 O         137.8774  139.9331  162.8583 O.2     1  UNL1       -0.1686
     23 C         144.1127  142.1948  164.1527 C.3     1  UNL1        0.0738
     24 C         143.3025  143.1625  163.3422 C.3     1  UNL1        0.0378
     25 C         141.9950  142.7314  162.7466 C.3     1  UNL1        0.0815
     26 C         140.7131  143.3423  163.2298 C.ar    1  UNL1       -0.0077
     27 C         139.4575  143.1867  162.4239 C.ar    1  UNL1       -0.0030
     28 C         138.1756  143.7976  162.9071 C.ar    1  UNL1       -0.0003
     29 C         138.1492  144.5642  164.1961 C.ar    1  UNL1       -0.0000
     30 C         139.4047  144.7198  165.0020 C.ar    1  UNL1       -0.0003
     31 C         140.6867  144.1089  164.5189 C.ar    1  UNL1       -0.0030
     32 N         141.9694  141.6895  161.6679 N.3     1  UNL1       -0.2678
     33 C         142.2644  142.0726  160.2480 C.3     1  UNL1        0.0917
     34 C         142.2388  141.0305  159.1693 C.3     1  UNL1        0.1131
     35 N         141.9182  139.6055  159.5105 N.3     1  UNL1       -0.1492
     36 C         141.6232  139.2224  160.9304 C.3     1  UNL1        0.1131
     37 C         141.6488  140.2644  162.0092 C.3     1  UNL1        0.0917
     38 S         141.8926  138.5635  158.4318 S.O2    1  UNL1        0.1303
     39 O         143.3882  138.4656  158.4907 O.2     1  UNL1       -0.1495
     40 O         140.3969  138.6613  158.3728 O.2     1  UNL1       -0.1495
     41 C         141.8669  137.5215  157.3531 C.3     1  UNL1        0.5359
     42 F         140.7226  138.2324  156.6936 F       1  UNL1       -0.1493
     43 F         143.0112  136.8106  158.0126 F       1  UNL1       -0.1493
     44 F         141.8412  136.4795  156.2744 F       1  UNL1       -0.1493
@<TRIPOS>BOND
     1    10    11    1
     2    11     7    1
     3     7     8   am
     4     8     9    2
     5     8    12    1
     6    12    13    1
     7    13    14   ar
     8    14    15   ar
     9    15    16   ar
    10    16    19    1
    11    19    20    1
    12    19    21    2
    13    19    22    2
    14    16    17   ar
    15    17    18   ar
    16     7     1    1
    17     1     2    1
    18     2     3    1
    19     3     4    1
    20     4    23    1
    21    23    24    1
    22    25    24    1
    23    25    26    1
    24    26    27   ar
    25    27    28   ar
    26    28    29   ar
    27    29    30   ar
    28    30    31   ar
    29    25    32    1
    30    32    33    1
    31    33    34    1
    32    34    35    1
    33    35    38    1
    34    38    39    2
    35    38    40    2
    36    38    41    1
    37    41    42    1
    38    41    43    1
    39    41    44    1
    40    35    36    1
    41    36    37    1
    42     4     5    1
    43     5     6    1
    44    18    13   ar
    45     6     1    1
    46    31    26   ar
    47    37    32    1
@<TRIPOS>MOLECULE
*****
 44 47 0 0 0
SMALL
GASTEIGER

@<TRIPOS>ATOM
      1 C         139.1673  138.9102  165.1226 C.3     1  UNL1        0.0781
      2 C         140.1474  137.8477  164.7219 C.3     1  UNL1        0.0372
      3 C         140.5782  137.7261  163.2903 C.3     1  UNL1        0.0738
      4 N         140.0289  138.6670  162.2593 N.3     1  UNL1       -0.2725
      5 C         139.0488  139.7295  162.6599 C.3     1  UNL1        0.0738
      6 C         138.6180  139.8511  164.0916 C.3     1  UNL1        0.0372
      7 N         138.7366  139.0318  166.5543 N.am    1  UNL1       -0.2808
      8 C         139.5451  139.8542  167.5135 C.2     1  UNL1        0.2300
      9 O         139.1143  139.9758  168.9451 O.2     1  UNL1       -0.2745
     10 C         137.3825  136.8412  166.8966 C.3     1  UNL1        0.0233
     11 C         137.4974  138.3311  167.0267 C.3     1  UNL1        0.0934
     12 C         140.7843  140.5549  167.0410 C.3     1  UNL1        0.1116
     13 C         140.6812  141.6693  166.0422 C.ar    1  UNL1       -0.0130
     14 C         141.6592  141.7527  164.9080 C.ar    1  UNL1       -0.0025
     15 C         141.5561  142.8671  163.9092 C.ar    1  UNL1        0.0180
     16 C         140.4749  143.8980  164.0447 C.ar    1  UNL1        0.1057
     17 C         139.4969  143.8146  165.1789 C.ar    1  UNL1        0.0180
     18 C         139.6001  142.7002  166.1776 C.ar    1  UNL1       -0.0025
     19 S         140.3718  145.0124  163.0458 S.O2    1  UNL1        0.0104
     20 C         140.2688  146.1267  162.0470 C.3     1  UNL1        0.1816
     21 O         141.7508  145.4719  163.4162 O.2     1  UNL1       -0.1686
     22 O         138.9929  144.5528  162.6754 O.2     1  UNL1       -0.1686
     23 C         140.4597  138.5453  160.8276 C.3     1  UNL1        0.0738
     24 C         141.8855  138.8151  160.4479 C.3     1  UNL1        0.0378
     25 C         142.5007  140.1506  160.7443 C.3     1  UNL1        0.0815
     26 C         143.4838  140.2907  161.8685 C.ar    1  UNL1       -0.0077
     27 C         143.5639  139.2346  162.9308 C.ar    1  UNL1       -0.0030
     28 C         144.5470  139.3746  164.0549 C.ar    1  UNL1       -0.0003
     29 C         145.4501  140.5706  164.1169 C.ar    1  UNL1       -0.0000
     30 C         145.3701  141.6267  163.0547 C.ar    1  UNL1       -0.0003
     31 C         144.3870  141.4867  161.9305 C.ar    1  UNL1       -0.0030
     32 N         142.1329  141.3462  159.9165 N.3     1  UNL1       -0.2678
     33 C         142.9038  141.6604  158.6687 C.3     1  UNL1        0.0917
     34 C         142.5359  142.8560  157.8409 C.3     1  UNL1        0.1131
     35 N         141.3971  143.7373  158.2608 N.3     1  UNL1       -0.1492
     36 C         140.6261  143.4230  159.5085 C.3     1  UNL1        0.1131
     37 C         140.9940  142.2275  160.3364 C.3     1  UNL1        0.0917
     38 S         141.0292  144.9329  157.4330 S.O2    1  UNL1        0.1303
     39 O         142.3170  145.5974  157.8202 O.2     1  UNL1       -0.1495
     40 O         139.7414  144.2684  157.0457 O.2     1  UNL1       -0.1495
     41 C         140.6612  146.1284  156.6051 C.3     1  UNL1        0.5359
     42 F         141.5462  145.6350  155.4992 F       1  UNL1       -0.1493
     43 F         139.7762  146.6219  157.7111 F       1  UNL1       -0.1493
     44 F         140.2933  147.3239  155.7773 F       1  UNL1       -0.1493
@<TRIPOS>BOND
     1    10    11    1
     2    11     7    1
     3     7     8   am
     4     8     9    2
     5     8    12    1
     6    12    13    1
     7    13    14   ar
     8    14    15   ar
     9    15    16   ar
    10    16    19    1
    11    19    20    1
    12    19    21    2
    13    19    22    2
    14    16    17   ar
    15    17    18   ar
    16     7     1    1
    17     1     2    1
    18     2     3    1
    19     3     4    1
    20     4    23    1
    21    23    24    1
    22    25    24    1
    23    25    26    1
    24    26    27   ar
    25    27    28   ar
    26    28    29   ar
    27    29    30   ar
    28    30    31   ar
    29    25    32    1
    30    32    33    1
    31    33    34    1
    32    34    35    1
    33    35    38    1
    34    38    39    2
    35    38    40    2
    36    38    41    1
    37    41    42    1
    38    41    43    1
    39    41    44    1
    40    35    36    1
    41    36    37    1
    42     4     5    1
    43     5     6    1
    44    18    13   ar
    45     6     1    1
    46    31    26   ar
    47    37    32    1
@<TRIPOS>MOLECULE
*****
 44 47 0 0 0
SMALL
GASTEIGER

@<TRIPOS>ATOM
      1 C         142.7294  140.7559  166.7345 C.3     1  UNL1        0.0781
      2 C         143.0881  141.9623  165.9185 C.3     1  UNL1        0.0372
      3 C         143.7559  141.7949  164.5859 C.3     1  UNL1        0.0738
      4 N         144.0651  140.4210  164.0692 N.3     1  UNL1       -0.2725
      5 C         143.7064  139.2145  164.8852 C.3     1  UNL1        0.0738
      6 C         143.0385  139.3820  166.2179 C.3     1  UNL1        0.0372
      7 N         142.0615  140.9233  168.0671 N.am    1  UNL1       -0.2808
      8 C         140.5643  140.9318  168.1599 C.2     1  UNL1        0.2300
      9 O         139.8965  141.0992  169.4926 O.2     1  UNL1       -0.2745
     10 C         143.4786  142.4191  169.6496 C.3     1  UNL1        0.0233
     11 C         142.8907  141.0823  169.3069 C.3     1  UNL1        0.0934
     12 C         139.7351  140.7728  166.9202 C.3     1  UNL1        0.1116
     13 C         139.7223  141.8558  165.8824 C.ar    1  UNL1       -0.0130
     14 C         139.7428  143.2960  166.3011 C.ar    1  UNL1       -0.0025
     15 C         139.7300  144.3790  165.2633 C.ar    1  UNL1        0.0180
     16 C         139.6967  144.0218  163.8069 C.ar    1  UNL1        0.1057
     17 C         139.6763  142.5816  163.3882 C.ar    1  UNL1        0.0180
     18 C         139.6891  141.4986  164.4259 C.ar    1  UNL1       -0.0025
     19 S         139.6839  145.1048  162.7691 S.O2    1  UNL1        0.0104
     20 C         139.6711  146.1878  161.7314 C.3     1  UNL1        0.1816
     21 O         138.2457  144.8013  162.4701 O.2     1  UNL1       -0.1686
     22 O         141.1221  145.4083  163.0681 O.2     1  UNL1       -0.1686
     23 C         144.7330  140.2536  162.7366 C.3     1  UNL1        0.0738
     24 C         144.0106  139.5649  161.6169 C.3     1  UNL1        0.0378
     25 C         142.6005  139.9525  161.2835 C.3     1  UNL1        0.0815
     26 C         141.4535  139.1682  161.8484 C.ar    1  UNL1       -0.0077
     27 C         141.7133  138.0449  162.8080 C.ar    1  UNL1       -0.0030
     28 C         140.5663  137.2606  163.3729 C.ar    1  UNL1       -0.0003
     29 C         139.1594  137.5996  162.9783 C.ar    1  UNL1       -0.0000
     30 C         138.8995  138.7228  162.0188 C.ar    1  UNL1       -0.0003
     31 C         140.0465  139.5072  161.4538 C.ar    1  UNL1       -0.0030
     32 N         142.3373  141.1245  160.3851 N.3     1  UNL1       -0.2678
     33 C         142.3301  142.5147  160.9485 C.3     1  UNL1        0.0917
     34 C         142.0670  143.6867  160.0500 C.3     1  UNL1        0.1131
     35 N         141.8110  143.4686  158.5882 N.3     1  UNL1       -0.1492
     36 C         141.8182  142.0784  158.0248 C.3     1  UNL1        0.1131
     37 C         142.0814  140.9064  158.9232 C.3     1  UNL1        0.0917
     38 S         141.5479  144.6406  157.6897 S.O2    1  UNL1        0.1303
     39 O         141.9705  145.5748  158.7845 O.2     1  UNL1       -0.1495
     40 O         141.1252  143.7064  156.5950 O.2     1  UNL1       -0.1495
     41 C         141.2847  145.8125  156.7913 C.3     1  UNL1        0.5359
     42 F         142.5041  145.4702  155.9876 F       1  UNL1       -0.1493
     43 F         140.0654  146.1548  157.5949 F       1  UNL1       -0.1493
     44 F         141.0216  146.9845  155.8928 F       1  UNL1       -0.1493
@<TRIPOS>BOND
     1    10    11    1
     2    11     7    1
     3     7     8   am
     4     8     9    2
     5     8    12    1
     6    12    13    1
     7    13    14   ar
     8    14    15   ar
     9    15    16   ar
    10    16    19    1
    11    19    20    1
    12    19    21    2
    13    19    22    2
    14    16    17   ar
    15    17    18   ar
    16     7     1    1
    17     1     2    1
    18     2     3    1
    19     3     4    1
    20     4    23    1
    21    23    24    1
    22    25    24    1
    23    25    26    1
    24    26    27   ar
    25    27    28   ar
    26    28    29   ar
    27    29    30   ar
    28    30    31   ar
    29    25    32    1
    30    32    33    1
    31    33    34    1
    32    34    35    1
    33    35    38    1
    34    38    39    2
    35    38    40    2
    36    38    41    1
    37    41    42    1
    38    41    43    1
    39    41    44    1
    40    35    36    1
    41    36    37    1
    42     4     5    1
    43     5     6    1
    44    18    13   ar
    45     6     1    1
    46    31    26   ar
    47    37    32    1
@<TRIPOS>MOLECULE
*****
 44 47 0 0 0
SMALL
GASTEIGER

@<TRIPOS>ATOM
      1 C         142.9705  141.6475  166.7975 C.3     1  UNL1        0.0781
      2 C         143.7479  142.8815  166.4470 C.3     1  UNL1        0.0372
      3 C         144.5043  142.9492  165.1535 C.3     1  UNL1        0.0738
      4 N         144.4832  141.7830  164.2104 N.3     1  UNL1       -0.2725
      5 C         143.7057  140.5490  164.5608 C.3     1  UNL1        0.0738
      6 C         142.9493  140.4812  165.8544 C.3     1  UNL1        0.0372
      7 N         142.2141  141.5797  168.0911 N.am    1  UNL1       -0.2808
      8 C         140.8429  142.1799  168.1904 C.2     1  UNL1        0.2300
      9 O         140.0865  142.1121  169.4840 O.2     1  UNL1       -0.2745
     10 C         142.4781  139.4907  169.6129 C.3     1  UNL1        0.0233
     11 C         142.8288  140.9118  169.2852 C.3     1  UNL1        0.0934
     12 C         140.2282  142.8478  166.9963 C.3     1  UNL1        0.1116
     13 C         139.6961  142.0192  165.8647 C.ar    1  UNL1       -0.0130
     14 C         139.6362  142.5917  164.4795 C.ar    1  UNL1       -0.0025
     15 C         139.1041  141.7632  163.3480 C.ar    1  UNL1        0.0180
     16 C         138.6320  140.3622  163.6016 C.ar    1  UNL1        0.1057
     17 C         138.6919  139.7897  164.9867 C.ar    1  UNL1        0.0180
     18 C         139.2240  140.6183  166.1183 C.ar    1  UNL1       -0.0025
     19 S         138.0999  139.5337  162.4700 S.O2    1  UNL1        0.0104
     20 C         137.5679  138.7051  161.3384 C.3     1  UNL1        0.1816
     21 O         138.6008  138.2910  163.1444 O.2     1  UNL1       -0.1686
     22 O         137.5990  140.7763  161.7956 O.2     1  UNL1       -0.1686
     23 C         145.2396  141.8508  162.9168 C.3     1  UNL1        0.0738
     24 C         144.7602  142.7471  161.8138 C.3     1  UNL1        0.0378
     25 C         143.3611  142.6102  161.2907 C.3     1  UNL1        0.0815
     26 C         142.3194  143.6241  161.6608 C.ar    1  UNL1       -0.0077
     27 C         142.5145  144.4937  162.8674 C.ar    1  UNL1       -0.0030
     28 C         141.4728  145.5076  163.2374 C.ar    1  UNL1       -0.0003
     29 C         140.2361  145.6519  162.4010 C.ar    1  UNL1       -0.0000
     30 C         140.0410  144.7824  161.1945 C.ar    1  UNL1       -0.0003
     31 C         141.0827  143.7684  160.8243 C.ar    1  UNL1       -0.0030
     32 N         143.0036  141.4595  160.3975 N.3     1  UNL1       -0.2678
     33 C         142.3416  140.2420  160.9715 C.3     1  UNL1        0.0917
     34 C         141.9841  139.0911  160.0782 C.3     1  UNL1        0.1131
     35 N         142.2885  139.1579  158.6110 N.3     1  UNL1       -0.1492
     36 C         142.9505  140.3754  158.0369 C.3     1  UNL1        0.1131
     37 C         143.3080  141.5261  158.9301 C.3     1  UNL1        0.0917
     38 S         141.9310  138.0070  157.7177 S.O2    1  UNL1        0.1303
     39 O         143.3499  137.9402  157.2358 O.2     1  UNL1       -0.1495
     40 O         140.5121  138.0738  158.1996 O.2     1  UNL1       -0.1495
     41 C         141.5735  136.8563  156.8245 C.3     1  UNL1        0.5359
     42 F         142.9999  136.3931  156.8502 F       1  UNL1       -0.1493
     43 F         140.1471  137.3194  156.7987 F       1  UNL1       -0.1493
     44 F         141.2160  135.7055  155.9313 F       1  UNL1       -0.1493
@<TRIPOS>BOND
     1    10    11    1
     2    11     7    1
     3     7     8   am
     4     8     9    2
     5     8    12    1
     6    12    13    1
     7    13    14   ar
     8    14    15   ar
     9    15    16   ar
    10    16    19    1
    11    19    20    1
    12    19    21    2
    13    19    22    2
    14    16    17   ar
    15    17    18   ar
    16     7     1    1
    17     1     2    1
    18     2     3    1
    19     3     4    1
    20     4    23    1
    21    23    24    1
    22    25    24    1
    23    25    26    1
    24    26    27   ar
    25    27    28   ar
    26    28    29   ar
    27    29    30   ar
    28    30    31   ar
    29    25    32    1
    30    32    33    1
    31    33    34    1
    32    34    35    1
    33    35    38    1
    34    38    39    2
    35    38    40    2
    36    38    41    1
    37    41    42    1
    38    41    43    1
    39    41    44    1
    40    35    36    1
    41    36    37    1
    42     4     5    1
    43     5     6    1
    44    18    13   ar
    45     6     1    1
    46    31    26   ar
    47    37    32    1
@<TRIPOS>MOLECULE
*****
 44 47 0 0 0
SMALL
GASTEIGER

@<TRIPOS>ATOM
      1 C         140.9094  138.1040  161.4628 C.3     1  UNL1        0.0781
      2 C         141.6807  137.5619  162.6295 C.3     1  UNL1        0.0372
      3 C         141.0006  137.3646  163.9518 C.3     1  UNL1        0.0738
      4 N         139.5491  137.7094  164.1074 N.3     1  UNL1       -0.2725
      5 C         138.7777  138.2515  162.9407 C.3     1  UNL1        0.0738
      6 C         139.4578  138.4488  161.6184 C.3     1  UNL1        0.0372
      7 N         141.5896  138.3013  160.1406 N.am    1  UNL1       -0.2808
      8 C         143.0445  138.6633  160.0922 C.2     1  UNL1        0.2300
      9 O         143.7246  138.8606  158.7699 O.2     1  UNL1       -0.2745
     10 C         140.2889  139.3433  158.1476 C.3     1  UNL1        0.0233
     11 C         140.8149  138.1367  158.8667 C.3     1  UNL1        0.0934
     12 C         143.8191  138.8280  161.3660 C.3     1  UNL1        0.1116
     13 C         143.8753  140.1659  162.0421 C.ar    1  UNL1       -0.0130
     14 C         143.4391  141.3974  161.3053 C.ar    1  UNL1       -0.0025
     15 C         143.4952  142.7352  161.9814 C.ar    1  UNL1        0.0180
     16 C         143.9876  142.8414  163.3943 C.ar    1  UNL1        0.1057
     17 C         144.4238  141.6098  164.1311 C.ar    1  UNL1        0.0180
     18 C         144.3676  140.2721  163.4550 C.ar    1  UNL1       -0.0025
     19 S         144.0437  144.1793  164.0704 S.O2    1  UNL1        0.0104
     20 C         144.0998  145.5170  164.7466 C.3     1  UNL1        0.1816
     21 O         144.0366  143.5029  165.4093 O.2     1  UNL1       -0.1686
     22 O         144.0508  144.8556  162.7316 O.2     1  UNL1       -0.1686
     23 C         138.8689  137.5121  165.4297 C.3     1  UNL1        0.0738
     24 C         138.3622  138.6973  166.1967 C.3     1  UNL1        0.0378
     25 C         139.2796  139.8462  166.4941 C.3     1  UNL1        0.0815
     26 C         140.1686  139.8031  167.7015 C.ar    1  UNL1       -0.0077
     27 C         139.6101  140.1249  169.0560 C.ar    1  UNL1       -0.0030
     28 C         140.4991  140.0817  170.2633 C.ar    1  UNL1       -0.0003
     29 C         141.9466  139.7169  170.1163 C.ar    1  UNL1       -0.0000
     30 C         142.5051  139.3951  168.7619 C.ar    1  UNL1       -0.0003
     31 C         141.6161  139.4382  167.5544 C.ar    1  UNL1       -0.0030
     32 N         139.3080  141.0383  165.5841 N.3     1  UNL1       -0.2678
     33 C         140.5089  141.9368  165.5622 C.3     1  UNL1        0.0917
     34 C         140.5373  143.1289  164.6521 C.3     1  UNL1        0.1131
     35 N         139.3647  143.4224  163.7639 N.3     1  UNL1       -0.1492
     36 C         138.1638  142.5239  163.7857 C.3     1  UNL1        0.1131
     37 C         138.1354  141.3318  164.6958 C.3     1  UNL1        0.0917
     38 S         139.3931  144.6145  162.8538 S.O2    1  UNL1        0.1303
     39 O         138.1782  144.0991  162.1409 O.2     1  UNL1       -0.1495
     40 O         140.6080  145.1298  163.5668 O.2     1  UNL1       -0.1495
     41 C         139.4215  145.8065  161.9438 C.3     1  UNL1        0.5359
     42 F         140.9167  145.7136  161.8688 F       1  UNL1       -0.1493
     43 F         137.9263  145.8994  162.0189 F       1  UNL1       -0.1493
     44 F         139.4499  146.9986  161.0338 F       1  UNL1       -0.1493
@<TRIPOS>BOND
     1    10    11    1
     2    11     7    1
     3     7     8   am
     4     8     9    2
     5     8    12    1
     6    12    13    1
     7    13    14   ar
     8    14    15   ar
     9    15    16   ar
    10    16    19    1
    11    19    20    1
    12    19    21    2
    13    19    22    2
    14    16    17   ar
    15    17    18   ar
    16     7     1    1
    17     1     2    1
    18     2     3    1
    19     3     4    1
    20     4    23    1
    21    23    24    1
    22    25    24    1
    23    25    26    1
    24    26    27   ar
    25    27    28   ar
    26    28    29   ar
    27    29    30   ar
    28    30    31   ar
    29    25    32    1
    30    32    33    1
    31    33    34    1
    32    34    35    1
    33    35    38    1
    34    38    39    2
    35    38    40    2
    36    38    41    1
    37    41    42    1
    38    41    43    1
    39    41    44    1
    40    35    36    1
    41    36    37    1
    42     4     5    1
    43     5     6    1
    44    18    13   ar
    45     6     1    1
    46    31    26   ar
    47    37    32    1
@<TRIPOS>MOLECULE
*****
 44 47 0 0 0
SMALL
GASTEIGER

@<TRIPOS>ATOM
      1 C         140.9878  138.1659  161.0153 C.3     1  UNL1        0.0781
      2 C         139.5582  138.5624  161.2362 C.3     1  UNL1        0.0372
      3 C         138.9103  138.3219  162.5676 C.3     1  UNL1        0.0738
      4 N         139.6921  137.6850  163.6780 N.3     1  UNL1       -0.2725
      5 C         141.1218  137.2884  163.4571 C.3     1  UNL1        0.0738
      6 C         141.7697  137.5289  162.1257 C.3     1  UNL1        0.0372
      7 N         141.6356  138.4063  159.6840 N.am    1  UNL1       -0.2808
      8 C         143.0907  138.7638  159.6115 C.2     1  UNL1        0.2300
      9 O         143.7385  139.0042  158.2802 O.2     1  UNL1       -0.2745
     10 C         140.2935  139.5228  157.7599 C.3     1  UNL1        0.0233
     11 C         140.8285  138.2894  158.4251 C.3     1  UNL1        0.0934
     12 C         143.8978  138.8807  160.8704 C.3     1  UNL1        0.1116
     13 C         143.9339  140.1794  161.6203 C.ar    1  UNL1       -0.0130
     14 C         144.3016  140.1958  163.0744 C.ar    1  UNL1       -0.0025
     15 C         144.3377  141.4945  163.8242 C.ar    1  UNL1        0.0180
     16 C         144.0060  142.7766  163.1199 C.ar    1  UNL1        0.1057
     17 C         143.6382  142.7602  161.6658 C.ar    1  UNL1        0.0180
     18 C         143.6022  141.4616  160.9160 C.ar    1  UNL1       -0.0025
     19 S         144.0421  144.0753  163.8698 S.O2    1  UNL1        0.0104
     20 C         144.0782  145.3739  164.6196 C.3     1  UNL1        0.1816
     21 O         144.3154  144.8070  162.5893 O.2     1  UNL1       -0.1686
     22 O         143.7688  143.3435  165.1503 O.2     1  UNL1       -0.1686
     23 C         139.0442  137.4445  165.0093 C.3     1  UNL1        0.0738
     24 C         138.4663  138.5938  165.7807 C.3     1  UNL1        0.0378
     25 C         139.3032  139.8073  166.0582 C.3     1  UNL1        0.0815
     26 C         140.0606  139.9170  167.3482 C.ar    1  UNL1       -0.0077
     27 C         139.3221  140.1390  168.6349 C.ar    1  UNL1       -0.0030
     28 C         140.0795  140.2487  169.9250 C.ar    1  UNL1       -0.0003
     29 C         141.5753  140.1365  169.9285 C.ar    1  UNL1       -0.0000
     30 C         142.3137  139.9146  168.6419 C.ar    1  UNL1       -0.0003
     31 C         141.5564  139.8048  167.3517 C.ar    1  UNL1       -0.0030
     32 N         139.3828  140.9110  165.0456 N.3     1  UNL1       -0.2678
     33 C         140.6296  141.0940  164.2320 C.3     1  UNL1        0.0917
     34 C         140.7092  142.1979  163.2194 C.3     1  UNL1        0.1131
     35 N         139.5419  143.1186  163.0204 N.3     1  UNL1       -0.1492
     36 C         138.2950  142.9356  163.8339 C.3     1  UNL1        0.1131
     37 C         138.2155  141.8319  164.8465 C.3     1  UNL1        0.0917
     38 S         139.6214  144.2224  162.0077 S.O2    1  UNL1        0.1303
     39 O         140.7588  144.8378  162.7678 O.2     1  UNL1       -0.1495
     40 O         138.4841  143.6070  161.2477 O.2     1  UNL1       -0.1495
     41 C         139.7009  145.3262  160.9952 C.3     1  UNL1        0.5359
     42 F         139.6441  144.3151  159.8886 F       1  UNL1       -0.1493
     43 F         139.7577  146.3372  162.1017 F       1  UNL1       -0.1493
     44 F         139.7804  146.4299  159.9826 F       1  UNL1       -0.1493
@<TRIPOS>BOND
     1    10    11    1
     2    11     7    1
     3     7     8   am
     4     8     9    2
     5     8    12    1
     6    12    13    1
     7    13    14   ar
     8    14    15   ar
     9    15    16   ar
    10    16    19    1
    11    19    20    1
    12    19    21    2
    13    19    22    2
    14    16    17   ar
    15    17    18   ar
    16     7     1    1
    17     1     2    1
    18     2     3    1
    19     3     4    1
    20     4    23    1
    21    23    24    1
    22    25    24    1
    23    25    26    1
    24    26    27   ar
    25    27    28   ar
    26    28    29   ar
    27    29    30   ar
    28    30    31   ar
    29    25    32    1
    30    32    33    1
    31    33    34    1
    32    34    35    1
    33    35    38    1
    34    38    39    2
    35    38    40    2
    36    38    41    1
    37    41    42    1
    38    41    43    1
    39    41    44    1
    40    35    36    1
    41    36    37    1
    42     4     5    1
    43     5     6    1
    44    18    13   ar
    45     6     1    1
    46    31    26   ar
    47    37    32    1
@<TRIPOS>MOLECULE
*****
 44 47 0 0 0
SMALL
GASTEIGER

@<TRIPOS>ATOM
      1 C         141.5357  143.1490  161.2510 C.3     1  UNL1        0.0781
      2 C         142.8985  142.6039  161.5601 C.3     1  UNL1        0.0372
      3 C         143.6065  141.7418  160.5574 C.3     1  UNL1        0.0738
      4 N         142.9518  141.4247  159.2456 N.3     1  UNL1       -0.2725
      5 C         141.5890  141.9698  158.9365 C.3     1  UNL1        0.0738
      6 C         140.8809  142.8320  159.9391 C.3     1  UNL1        0.0372
      7 N         140.8276  144.0112  162.2536 N.am    1  UNL1       -0.2808
      8 C         140.1116  143.3813  163.4115 C.2     1  UNL1        0.2300
      9 O         139.4035  144.2435  164.4142 O.2     1  UNL1       -0.2745
     10 C         139.6251  146.2076  161.5613 C.3     1  UNL1        0.0233
     11 C         140.8355  145.5031  162.0984 C.3     1  UNL1        0.0934
     12 C         140.1036  141.8894  163.5667 C.3     1  UNL1        0.1116
     13 C         140.5919  141.2653  164.8404 C.ar    1  UNL1       -0.0130
     14 C         139.6884  141.1951  166.0357 C.ar    1  UNL1       -0.0025
     15 C         140.1766  140.5709  167.3092 C.ar    1  UNL1        0.0180
     16 C         141.5684  140.0169  167.3875 C.ar    1  UNL1        0.1057
     17 C         142.4719  140.0871  166.1922 C.ar    1  UNL1        0.0180
     18 C         141.9836  140.7113  164.9187 C.ar    1  UNL1       -0.0025
     19 S         142.0566  139.3927  168.6611 S.O2    1  UNL1        0.0104
     20 C         142.5448  138.7686  169.9347 C.3     1  UNL1        0.1816
     21 O         140.8688  139.9488  169.3889 O.2     1  UNL1       -0.1686
     22 O         143.2445  138.8367  167.9333 O.2     1  UNL1       -0.1686
     23 C         143.6599  140.5626  158.2430 C.3     1  UNL1        0.0738
     24 C         142.8689  139.7430  157.2671 C.3     1  UNL1        0.0378
     25 C         142.2628  138.4407  157.6993 C.3     1  UNL1        0.0815
     26 C         142.2354  137.2760  156.7545 C.ar    1  UNL1       -0.0077
     27 C         143.5082  136.5626  156.4062 C.ar    1  UNL1       -0.0030
     28 C         143.4808  135.3980  155.4614 C.ar    1  UNL1       -0.0003
     29 C         142.1806  134.9466  154.8648 C.ar    1  UNL1       -0.0000
     30 C         140.9079  135.6599  155.2130 C.ar    1  UNL1       -0.0003
     31 C         140.9353  136.8246  156.1579 C.ar    1  UNL1       -0.0030
     32 N         141.6841  138.3031  159.0763 N.3     1  UNL1       -0.2678
     33 C         142.5612  137.8888  160.2204 C.3     1  UNL1        0.0917
     34 C         141.9824  137.7512  161.5975 C.3     1  UNL1        0.1131
     35 N         140.5267  138.0279  161.8303 N.3     1  UNL1       -0.1492
     36 C         139.6497  138.4422  160.6861 C.3     1  UNL1        0.1131
     37 C         140.2283  138.5798  159.3091 C.3     1  UNL1        0.0917
     38 S         139.9480  137.8904  163.2074 S.O2    1  UNL1        0.1303
     39 O         138.7357  138.6606  162.7749 O.2     1  UNL1       -0.1495
     40 O         141.1602  137.1201  163.6398 O.2     1  UNL1       -0.1495
     41 C         139.3693  137.7528  164.5844 C.3     1  UNL1        0.5359
     42 F         138.2570  138.6870  164.2103 F       1  UNL1       -0.1493
     43 F         140.4816  136.8185  164.9584 F       1  UNL1       -0.1493
     44 F         138.7906  137.6152  165.9614 F       1  UNL1       -0.1493
@<TRIPOS>BOND
     1    10    11    1
     2    11     7    1
     3     7     8   am
     4     8     9    2
     5     8    12    1
     6    12    13    1
     7    13    14   ar
     8    14    15   ar
     9    15    16   ar
    10    16    19    1
    11    19    20    1
    12    19    21    2
    13    19    22    2
    14    16    17   ar
    15    17    18   ar
    16     7     1    1
    17     1     2    1
    18     2     3    1
    19     3     4    1
    20     4    23    1
    21    23    24    1
    22    25    24    1
    23    25    26    1
    24    26    27   ar
    25    27    28   ar
    26    28    29   ar
    27    29    30   ar
    28    30    31   ar
    29    25    32    1
    30    32    33    1
    31    33    34    1
    32    34    35    1
    33    35    38    1
    34    38    39    2
    35    38    40    2
    36    38    41    1
    37    41    42    1
    38    41    43    1
    39    41    44    1
    40    35    36    1
    41    36    37    1
    42     4     5    1
    43     5     6    1
    44    18    13   ar
    45     6     1    1
    46    31    26   ar
    47    37    32    1
