@<TRIPOS>MOLECULE
*****
 21 23 0 0 0
SMALL
GASTEIGER

@<TRIPOS>ATOM
      1 C         141.8927  142.0047  167.9034 C.3     1  UNL1        0.0323
      2 C         140.8386  142.8837  168.5086 C.3     1  UNL1        0.0053
      3 C         141.0717  143.5224  169.8456 C.3     1  UNL1        0.0004
      4 C         142.3589  143.2822  170.5775 C.3     1  UNL1        0.0000
      5 C         143.4129  142.4031  169.9722 C.3     1  UNL1        0.0004
      6 C         143.1798  141.7644  168.6352 C.3     1  UNL1        0.0053
      7 C         140.8453  141.9307  166.8322 C.ar    1  UNL1       -0.0215
      8 C         140.0759  140.6603  166.6219 C.ar    1  UNL1       -0.0042
      9 C         139.0285  140.5864  165.5506 C.ar    1  UNL1       -0.0003
     10 C         138.7505  141.7828  164.6897 C.ar    1  UNL1       -0.0000
     11 C         137.7032  141.7089  163.6185 C.ar    1  UNL1       -0.0000
     12 C         137.4251  142.9054  162.7575 C.ar    1  UNL1       -0.0000
     13 C         138.1944  144.1757  162.9678 C.ar    1  UNL1       -0.0000
     14 C         139.2418  144.2497  164.0391 C.ar    1  UNL1       -0.0000
     15 C         139.5199  143.0532  164.9000 C.ar    1  UNL1       -0.0003
     16 C         140.5672  143.1272  165.9712 C.ar    1  UNL1       -0.0042
     17 C         142.6388  139.6229  167.1818 C.3     1  UNL1        0.0177
     18 C         142.5830  141.0999  166.9262 C.3     1  UNL1        0.0613
     19 N         143.2175  141.6722  165.6934 N.3     1  UNL1       -0.2713
     20 C         143.0623  140.9720  164.3759 C.3     1  UNL1        0.0896
     21 C         144.0072  142.9447  165.7779 C.3     1  UNL1        0.0896
@<TRIPOS>BOND
     1    17    18    1
     2    18    19    1
     3    19    20    1
     4    19    21    1
     5    18     1    1
     6     1     7    1
     7     7     8   ar
     8     8     9   ar
     9     9    10   ar
    10    10    11   ar
    11    11    12   ar
    12    12    13   ar
    13    13    14   ar
    14    14    15   ar
    15    15    16   ar
    16     1     2    1
    17     2     3    1
    18     3     4    1
    19     4     5    1
    20     5     6    1
    21     6     1    1
    22    16     7   ar
    23    15    10   ar
@<TRIPOS>MOLECULE
*****
 21 23 0 0 0
SMALL
GASTEIGER

@<TRIPOS>ATOM
      1 C         140.2086  141.6935  167.4025 C.3     1  UNL1        0.0323
      2 C         139.6765  140.5103  168.1553 C.3     1  UNL1        0.0053
      3 C         139.4417  140.6058  169.6338 C.3     1  UNL1        0.0004
      4 C         139.7390  141.8845  170.3593 C.3     1  UNL1        0.0000
      5 C         140.2711  143.0677  169.6064 C.3     1  UNL1        0.0004
      6 C         140.5059  142.9722  168.1280 C.3     1  UNL1        0.0053
      7 C         140.0808  140.7066  166.2801 C.ar    1  UNL1       -0.0215
      8 C         140.9767  139.5046  166.2325 C.ar    1  UNL1       -0.0042
      9 C         140.8488  138.5177  165.1101 C.ar    1  UNL1       -0.0003
     10 C         139.8249  138.7330  164.0352 C.ar    1  UNL1       -0.0000
     11 C         139.6970  137.7462  162.9128 C.ar    1  UNL1       -0.0000
     12 C         138.6732  137.9615  161.8379 C.ar    1  UNL1       -0.0000
     13 C         137.7772  139.1635  161.8854 C.ar    1  UNL1       -0.0000
     14 C         137.9051  140.1504  163.0079 C.ar    1  UNL1       -0.0000
     15 C         138.9290  139.9351  164.0828 C.ar    1  UNL1       -0.0003
     16 C         139.0569  140.9219  165.2052 C.ar    1  UNL1       -0.0042
     17 C         139.7820  143.5390  165.6243 C.3     1  UNL1        0.0177
     18 C         140.6964  142.5340  166.2598 C.3     1  UNL1        0.0613
     19 N         142.0984  142.3696  165.7528 N.3     1  UNL1       -0.2713
     20 C         142.3614  142.3224  164.2767 C.3     1  UNL1        0.0896
     21 C         143.2375  142.2523  166.7217 C.3     1  UNL1        0.0896
@<TRIPOS>BOND
     1    17    18    1
     2    18    19    1
     3    19    20    1
     4    19    21    1
     5    18     1    1
     6     1     7    1
     7     7     8   ar
     8     8     9   ar
     9     9    10   ar
    10    10    11   ar
    11    11    12   ar
    12    12    13   ar
    13    13    14   ar
    14    14    15   ar
    15    15    16   ar
    16     1     2    1
    17     2     3    1
    18     3     4    1
    19     4     5    1
    20     5     6    1
    21     6     1    1
    22    16     7   ar
    23    15    10   ar
@<TRIPOS>MOLECULE
*****
 21 23 0 0 0
SMALL
GASTEIGER

@<TRIPOS>ATOM
      1 C         142.2404  140.8997  167.6444 C.3     1  UNL1        0.0323
      2 C         142.9313  142.0470  168.3198 C.3     1  UNL1        0.0053
      3 C         143.4101  141.9064  169.7344 C.3     1  UNL1        0.0004
      4 C         143.1981  140.6185  170.4735 C.3     1  UNL1        0.0000
      5 C         142.5072  139.4712  169.7980 C.3     1  UNL1        0.0004
      6 C         142.0283  139.6117  168.3834 C.3     1  UNL1        0.0053
      7 C         142.2087  141.9111  166.5371 C.ar    1  UNL1       -0.0215
      8 C         143.4835  142.3289  165.8662 C.ar    1  UNL1       -0.0042
      9 C         143.4518  143.3404  164.7589 C.ar    1  UNL1       -0.0003
     10 C         142.1452  143.9340  164.3226 C.ar    1  UNL1       -0.0000
     11 C         142.1134  144.9454  163.2154 C.ar    1  UNL1       -0.0000
     12 C         140.8068  145.5390  162.7791 C.ar    1  UNL1       -0.0000
     13 C         139.5320  145.1213  163.4500 C.ar    1  UNL1       -0.0000
     14 C         139.5637  144.1098  164.5573 C.ar    1  UNL1       -0.0000
     15 C         140.8703  143.5162  164.9936 C.ar    1  UNL1       -0.0003
     16 C         140.9021  142.5048  166.1008 C.ar    1  UNL1       -0.0042
     17 C         140.0456  139.9613  166.6185 C.3     1  UNL1        0.0177
     18 C         141.5385  140.1036  166.5844 C.3     1  UNL1        0.0613
     19 N         142.3294  139.4498  165.4903 N.3     1  UNL1       -0.2713
     20 C         141.8640  139.5469  164.0676 C.3     1  UNL1        0.0896
     21 C         143.5856  138.6989  165.8189 C.3     1  UNL1        0.0896
@<TRIPOS>BOND
     1    17    18    1
     2    18    19    1
     3    19    20    1
     4    19    21    1
     5    18     1    1
     6     1     7    1
     7     7     8   ar
     8     8     9   ar
     9     9    10   ar
    10    10    11   ar
    11    11    12   ar
    12    12    13   ar
    13    13    14   ar
    14    14    15   ar
    15    15    16   ar
    16     1     2    1
    17     2     3    1
    18     3     4    1
    19     4     5    1
    20     5     6    1
    21     6     1    1
    22    16     7   ar
    23    15    10   ar
@<TRIPOS>MOLECULE
*****
 21 23 0 0 0
SMALL
GASTEIGER

@<TRIPOS>ATOM
      1 C         140.7777  140.4474  167.9526 C.3     1  UNL1        0.0323
      2 C         141.8831  139.8500  168.7717 C.3     1  UNL1        0.0053
      3 C         141.6512  139.5183  170.2161 C.3     1  UNL1        0.0004
      4 C         140.3139  139.7841  170.8413 C.3     1  UNL1        0.0000
      5 C         139.2085  140.3816  170.0220 C.3     1  UNL1        0.0004
      6 C         139.4404  140.7133  168.5777 C.3     1  UNL1        0.0053
      7 C         141.8620  140.3811  166.9180 C.ar    1  UNL1       -0.0215
      8 C         142.2982  139.0536  166.3728 C.ar    1  UNL1       -0.0042
      9 C         143.3824  138.9873  165.3383 C.ar    1  UNL1       -0.0003
     10 C         144.0304  140.2486  164.8491 C.ar    1  UNL1       -0.0000
     11 C         145.1145  140.1824  163.8146 C.ar    1  UNL1       -0.0000
     12 C         145.7625  141.4437  163.3254 C.ar    1  UNL1       -0.0000
     13 C         145.3262  142.7712  163.8706 C.ar    1  UNL1       -0.0000
     14 C         144.2420  142.8375  164.9051 C.ar    1  UNL1       -0.0000
     15 C         143.5941  141.5762  165.3944 C.ar    1  UNL1       -0.0003
     16 C         142.5099  141.6424  166.4288 C.ar    1  UNL1       -0.0042
     17 C         139.9737  142.5088  166.5908 C.3     1  UNL1        0.0177
     18 C         140.0488  141.0219  166.7741 C.3     1  UNL1        0.0613
     19 N         139.3952  140.1096  165.7790 N.3     1  UNL1       -0.2713
     20 C         139.5333  140.3798  164.3100 C.3     1  UNL1        0.0896
     21 C         138.6034  138.9270  166.2528 C.3     1  UNL1        0.0896
@<TRIPOS>BOND
     1    17    18    1
     2    18    19    1
     3    19    20    1
     4    19    21    1
     5    18     1    1
     6     1     7    1
     7     7     8   ar
     8     8     9   ar
     9     9    10   ar
    10    10    11   ar
    11    11    12   ar
    12    12    13   ar
    13    13    14   ar
    14    14    15   ar
    15    15    16   ar
    16     1     2    1
    17     2     3    1
    18     3     4    1
    19     4     5    1
    20     5     6    1
    21     6     1    1
    22    16     7   ar
    23    15    10   ar
@<TRIPOS>MOLECULE
*****
 21 23 0 0 0
SMALL
GASTEIGER

@<TRIPOS>ATOM
      1 C         141.7344  142.1223  167.8013 C.3     1  UNL1        0.0323
      2 C         143.1399  141.9477  168.2954 C.3     1  UNL1        0.0053
      3 C         143.5365  142.4909  169.6361 C.3     1  UNL1        0.0004
      4 C         142.5276  143.2088  170.4828 C.3     1  UNL1        0.0000
      5 C         141.1222  143.3834  169.9886 C.3     1  UNL1        0.0004
      6 C         140.7255  142.8401  168.6479 C.3     1  UNL1        0.0053
      7 C         142.3266  141.3749  166.6434 C.ar    1  UNL1       -0.0215
      8 C         142.6819  139.9249  166.7894 C.ar    1  UNL1       -0.0042
      9 C         143.2741  139.1775  165.6314 C.ar    1  UNL1       -0.0003
     10 C         143.5109  139.8802  164.3275 C.ar    1  UNL1       -0.0000
     11 C         144.1030  139.1328  163.1696 C.ar    1  UNL1       -0.0000
     12 C         144.3399  139.8355  161.8656 C.ar    1  UNL1       -0.0000
     13 C         143.9846  141.2854  161.7196 C.ar    1  UNL1       -0.0000
     14 C         143.3924  142.0328  162.8776 C.ar    1  UNL1       -0.0000
     15 C         143.1556  141.3302  164.1815 C.ar    1  UNL1       -0.0003
     16 C         142.5634  142.0775  165.3394 C.ar    1  UNL1       -0.0042
     17 C         140.1484  143.2117  166.0555 C.3     1  UNL1        0.0177
     18 C         140.5346  142.0373  166.9051 C.3     1  UNL1        0.0613
     19 N         139.7209  140.7781  166.8585 N.3     1  UNL1       -0.2713
     20 C         139.1620  140.2942  165.5533 C.3     1  UNL1        0.0896
     21 C         139.4662  140.0027  168.1170 C.3     1  UNL1        0.0896
@<TRIPOS>BOND
     1    17    18    1
     2    18    19    1
     3    19    20    1
     4    19    21    1
     5    18     1    1
     6     1     7    1
     7     7     8   ar
     8     8     9   ar
     9     9    10   ar
    10    10    11   ar
    11    11    12   ar
    12    12    13   ar
    13    13    14   ar
    14    14    15   ar
    15    15    16   ar
    16     1     2    1
    17     2     3    1
    18     3     4    1
    19     4     5    1
    20     5     6    1
    21     6     1    1
    22    16     7   ar
    23    15    10   ar
@<TRIPOS>MOLECULE
*****
 21 23 0 0 0
SMALL
GASTEIGER

@<TRIPOS>ATOM
      1 C         141.0939  139.9408  167.3351 C.3     1  UNL1        0.0323
      2 C         139.7409  140.1338  167.9532 C.3     1  UNL1        0.0053
      3 C         139.5891  140.1198  169.4454 C.3     1  UNL1        0.0004
      4 C         140.7904  139.9128  170.3195 C.3     1  UNL1        0.0000
      5 C         142.1434  139.7197  169.7014 C.3     1  UNL1        0.0004
      6 C         142.2952  139.7337  168.2091 C.3     1  UNL1        0.0053
      7 C         140.2622  140.1000  166.0969 C.ar    1  UNL1       -0.0215
      8 C         139.6789  141.4382  165.7522 C.ar    1  UNL1       -0.0042
      9 C         138.8472  141.5974  164.5140 C.ar    1  UNL1       -0.0003
     10 C         138.5990  140.4184  163.6206 C.ar    1  UNL1       -0.0000
     11 C         137.7674  140.5775  162.3824 C.ar    1  UNL1       -0.0000
     12 C         137.5191  139.3985  161.4890 C.ar    1  UNL1       -0.0000
     13 C         138.1025  138.0603  161.8336 C.ar    1  UNL1       -0.0000
     14 C         138.9342  137.9011  163.0718 C.ar    1  UNL1       -0.0000
     15 C         139.1824  139.0801  163.9653 C.ar    1  UNL1       -0.0003
     16 C         140.0140  138.9210  165.2034 C.ar    1  UNL1       -0.0042
     17 C         142.6497  138.4421  165.8917 C.3     1  UNL1        0.0177
     18 C         142.1581  139.8030  166.2870 C.3     1  UNL1        0.0613
     19 N         142.7307  141.0261  165.6342 N.3     1  UNL1       -0.2713
     20 C         143.0803  142.2254  166.4645 C.3     1  UNL1        0.0896
     21 C         142.9537  141.0499  164.1511 C.3     1  UNL1        0.0896
@<TRIPOS>BOND
     1    17    18    1
     2    18    19    1
     3    19    20    1
     4    19    21    1
     5    18     1    1
     6     1     7    1
     7     7     8   ar
     8     8     9   ar
     9     9    10   ar
    10    10    11   ar
    11    11    12   ar
    12    12    13   ar
    13    13    14   ar
    14    14    15   ar
    15    15    16   ar
    16     1     2    1
    17     2     3    1
    18     3     4    1
    19     4     5    1
    20     5     6    1
    21     6     1    1
    22    16     7   ar
    23    15    10   ar
@<TRIPOS>MOLECULE
*****
 21 23 0 0 0
SMALL
GASTEIGER

@<TRIPOS>ATOM
      1 C         140.1074  141.4660  167.2572 C.3     1  UNL1        0.0323
      2 C         140.4715  142.7124  168.0080 C.3     1  UNL1        0.0053
      3 C         140.3594  142.7469  169.5034 C.3     1  UNL1        0.0004
      4 C         139.8830  141.5350  170.2480 C.3     1  UNL1        0.0000
      5 C         139.5188  140.2886  169.4970 C.3     1  UNL1        0.0004
      6 C         139.6310  140.2540  168.0016 C.3     1  UNL1        0.0053
      7 C         140.5053  142.3519  166.1139 C.ar    1  UNL1       -0.0215
      8 C         141.9559  142.5472  165.7861 C.ar    1  UNL1       -0.0042
      9 C         142.3538  143.4331  164.6429 C.ar    1  UNL1       -0.0003
     10 C         141.3010  144.1236  163.8275 C.ar    1  UNL1       -0.0000
     11 C         141.6988  145.0094  162.6843 C.ar    1  UNL1       -0.0000
     12 C         140.6460  145.6999  161.8688 C.ar    1  UNL1       -0.0000
     13 C         139.1954  145.5045  162.1966 C.ar    1  UNL1       -0.0000
     14 C         138.7975  144.6186  163.3399 C.ar    1  UNL1       -0.0000
     15 C         139.8503  143.9282  164.1553 C.ar    1  UNL1       -0.0003
     16 C         139.4525  143.0423  165.2985 C.ar    1  UNL1       -0.0042
     17 C         138.5046  140.3585  165.5383 C.3     1  UNL1        0.0177
     18 C         139.8814  140.5272  166.1093 C.3     1  UNL1        0.0613
     19 N         141.0321  139.7571  165.5324 N.3     1  UNL1       -0.2713
     20 C         142.1005  139.2161  166.4356 C.3     1  UNL1        0.0896
     21 C         141.1144  139.5281  164.0523 C.3     1  UNL1        0.0896
@<TRIPOS>BOND
     1    17    18    1
     2    18    19    1
     3    19    20    1
     4    19    21    1
     5    18     1    1
     6     1     7    1
     7     7     8   ar
     8     8     9   ar
     9     9    10   ar
    10    10    11   ar
    11    11    12   ar
    12    12    13   ar
    13    13    14   ar
    14    14    15   ar
    15    15    16   ar
    16     1     2    1
    17     2     3    1
    18     3     4    1
    19     4     5    1
    20     5     6    1
    21     6     1    1
    22    16     7   ar
    23    15    10   ar
@<TRIPOS>MOLECULE
*****
 21 23 0 0 0
SMALL
GASTEIGER

@<TRIPOS>ATOM
      1 C         140.3483  141.4787  167.8185 C.3     1  UNL1        0.0323
      2 C         140.5194  142.9334  168.1414 C.3     1  UNL1        0.0053
      3 C         140.3364  143.4157  169.5499 C.3     1  UNL1        0.0004
      4 C         139.9822  142.4430  170.6356 C.3     1  UNL1        0.0000
      5 C         139.8112  140.9882  170.3126 C.3     1  UNL1        0.0004
      6 C         139.9942  140.5060  168.9041 C.3     1  UNL1        0.0053
      7 C         140.6834  142.0101  166.4564 C.ar    1  UNL1       -0.0215
      8 C         139.6273  142.0669  165.3928 C.ar    1  UNL1       -0.0042
      9 C         139.9625  142.5983  164.0306 C.ar    1  UNL1       -0.0003
     10 C         141.3537  143.0730  163.7322 C.ar    1  UNL1       -0.0000
     11 C         141.6889  143.6044  162.3702 C.ar    1  UNL1       -0.0000
     12 C         143.0802  144.0791  162.0718 C.ar    1  UNL1       -0.0000
     13 C         144.1363  144.0224  163.1354 C.ar    1  UNL1       -0.0000
     14 C         143.8011  143.4909  164.4975 C.ar    1  UNL1       -0.0000
     15 C         142.4099  143.0162  164.7960 C.ar    1  UNL1       -0.0003
     16 C         142.0747  142.4848  166.1580 C.ar    1  UNL1       -0.0042
     17 C         138.9697  139.6486  166.5936 C.3     1  UNL1        0.0177
     18 C         140.2936  140.2084  167.0226 C.3     1  UNL1        0.0613
     19 N         141.5627  139.4980  166.6556 N.3     1  UNL1       -0.2713
     20 C         141.7219  138.9060  165.2866 C.3     1  UNL1        0.0896
     21 C         142.6726  139.3796  167.6577 C.3     1  UNL1        0.0896
@<TRIPOS>BOND
     1    17    18    1
     2    18    19    1
     3    19    20    1
     4    19    21    1
     5    18     1    1
     6     1     7    1
     7     7     8   ar
     8     8     9   ar
     9     9    10   ar
    10    10    11   ar
    11    11    12   ar
    12    12    13   ar
    13    13    14   ar
    14    14    15   ar
    15    15    16   ar
    16     1     2    1
    17     2     3    1
    18     3     4    1
    19     4     5    1
    20     5     6    1
    21     6     1    1
    22    16     7   ar
    23    15    10   ar
@<TRIPOS>MOLECULE
*****
 21 23 0 0 0
SMALL
GASTEIGER

@<TRIPOS>ATOM
      1 C         139.2756  142.1222  164.7717 C.3     1  UNL1        0.0323
      2 C         139.4362  143.5233  165.2827 C.3     1  UNL1        0.0053
      3 C         138.6977  144.6509  164.6246 C.3     1  UNL1        0.0004
      4 C         137.7986  144.3773  163.4554 C.3     1  UNL1        0.0000
      5 C         137.6381  142.9762  162.9445 C.3     1  UNL1        0.0004
      6 C         138.3766  141.8486  163.6026 C.3     1  UNL1        0.0053
      7 C         140.2346  141.8799  165.8994 C.ar    1  UNL1       -0.0215
      8 C         141.6262  142.4357  165.8331 C.ar    1  UNL1       -0.0042
      9 C         142.5852  142.1933  166.9608 C.ar    1  UNL1       -0.0003
     10 C         142.1525  141.3951  168.1548 C.ar    1  UNL1       -0.0000
     11 C         143.1114  141.1528  169.2825 C.ar    1  UNL1       -0.0000
     12 C         142.6787  140.3546  170.4765 C.ar    1  UNL1       -0.0000
     13 C         141.2871  139.7988  170.5429 C.ar    1  UNL1       -0.0000
     14 C         140.3281  140.0411  169.4151 C.ar    1  UNL1       -0.0000
     15 C         140.7608  140.8393  168.2211 C.ar    1  UNL1       -0.0003
     16 C         139.8019  141.0817  167.0934 C.ar    1  UNL1       -0.0042
     17 C         138.3949  139.7140  165.1900 C.3     1  UNL1        0.0177
     18 C         139.4481  140.6369  164.6524 C.3     1  UNL1        0.0613
     19 N         140.6737  140.0746  163.9954 N.3     1  UNL1       -0.2713
     20 C         141.1989  140.6928  162.7336 C.3     1  UNL1        0.0896
     21 C         141.3741  138.8941  164.6002 C.3     1  UNL1        0.0896
@<TRIPOS>BOND
     1    17    18    1
     2    18    19    1
     3    19    20    1
     4    19    21    1
     5    18     1    1
     6     1     7    1
     7     7     8   ar
     8     8     9   ar
     9     9    10   ar
    10    10    11   ar
    11    11    12   ar
    12    12    13   ar
    13    13    14   ar
    14    14    15   ar
    15    15    16   ar
    16     1     2    1
    17     2     3    1
    18     3     4    1
    19     4     5    1
    20     5     6    1
    21     6     1    1
    22    16     7   ar
    23    15    10   ar
