@<TRIPOS>MOLECULE
*****
 27 30 0 0 0
SMALL
GASTEIGER

@<TRIPOS>ATOM
      1 C         139.6739  140.2205  167.5522 C.ar    1  UNL1        0.2454
      2 N         139.3048  139.7377  168.9236 N.ar    1  UNL1       -0.1778
      3 C         140.2060  140.0249  170.0876 C.ar    1  UNL1        0.2163
      4 N         139.8369  139.5421  171.4590 N.pl3   1  UNL1       -0.3274
      5 N         141.4765  140.7951  169.8804 N.ar    1  UNL1       -0.2123
      6 C         141.8456  141.2779  168.5091 C.ar    1  UNL1        0.1060
      7 C         143.0244  142.0547  168.0021 C.ar    1  UNL1        0.0395
      8 C         142.8516  142.2475  166.5246 C.ar    1  UNL1        0.0779
      9 N         141.5660  141.5899  166.1185 N.ar    1  UNL1       -0.3154
     10 C         140.9443  140.9906  167.3450 C.ar    1  UNL1        0.1322
     11 H         139.0030  139.0366  171.5951 H       1  UNL1        0.1452
     12 H         140.4284  139.7306  172.2231 H       1  UNL1        0.1452
     13 O         138.7726  139.9332  166.3881 O.3     1  UNL1       -0.4519
     14 C         138.6905  138.5441  165.8281 C.3     1  UNL1        0.2591
     15 C         139.4354  138.1900  160.6127 C.3     1  UNL1        0.0398
     16 C         139.6405  138.0745  162.0942 C.ar    1  UNL1        0.0279
     17 C         140.8254  137.4560  162.7747 C.ar    1  UNL1        0.1013
     18 N         140.6138  137.5566  164.2563 N.ar    1  UNL1       -0.2378
     19 C         139.2981  138.2373  164.4914 C.ar    1  UNL1        0.1319
     20 S         138.6965  138.5574  163.1551 S.2     1  UNL1       -0.0715
     21 C         141.0014  141.5402  164.7297 C.3     1  UNL1        0.1520
     22 C         139.8973  142.4758  164.3350 C.ar    1  UNL1        0.0818
     23 C         139.5563  143.6450  165.2104 C.ar    1  UNL1        0.0167
     24 C         138.4523  144.5806  164.8159 C.ar    1  UNL1        0.0029
     25 C         137.6892  144.3468  163.5457 C.ar    1  UNL1        0.0207
     26 C         138.0303  143.1775  162.6703 C.ar    1  UNL1        0.0985
     27 N         139.1343  142.2420  163.0649 N.ar    1  UNL1       -0.2462
@<TRIPOS>BOND
     1    15    16    1
     2    16    17   ar
     3    17    18   ar
     4    18    19   ar
     5    19    14    1
     6    14    13    1
     7    13     1    1
     8     1     2   ar
     9     2     3   ar
    10     3     4    1
    11     3     5   ar
    12     5     6   ar
    13     6     7   ar
    14     7     8   ar
    15     8     9   ar
    16     9    21    1
    17    21    22    1
    18    22    23   ar
    19    23    24   ar
    20    24    25   ar
    21    25    26   ar
    22    26    27   ar
    23     9    10   ar
    24    19    20   ar
    25    20    16   ar
    26    10     1   ar
    27    10     6   ar
    28    27    22   ar
    29     4    11    1
    30     4    12    1
@<TRIPOS>MOLECULE
*****
 27 30 0 0 0
SMALL
GASTEIGER

@<TRIPOS>ATOM
      1 C         141.0088  142.6209  162.4233 C.ar    1  UNL1        0.2454
      2 N         142.3190  143.3303  162.2501 N.ar    1  UNL1       -0.1778
      3 C         142.5672  144.6301  162.9563 C.ar    1  UNL1        0.2163
      4 N         143.8775  145.3395  162.7831 N.pl3   1  UNL1       -0.3274
      5 N         141.5051  145.2206  163.8358 N.ar    1  UNL1       -0.2123
      6 C         140.1949  144.5112  164.0089 C.ar    1  UNL1        0.1060
      7 C         138.9690  144.8476  164.8051 C.ar    1  UNL1        0.0395
      8 C         137.9631  143.7557  164.5910 C.ar    1  UNL1        0.0779
      9 N         138.5674  142.7444  163.6624 N.ar    1  UNL1       -0.3154
     10 C         139.9467  143.2113  163.3027 C.ar    1  UNL1        0.1322
     11 H         144.5746  144.9520  162.2060 H       1  UNL1        0.1452
     12 H         144.0404  146.1927  163.2467 H       1  UNL1        0.1452
     13 O         140.7606  141.3210  161.7170 O.3     1  UNL1       -0.4519
     14 C         141.8945  140.3684  161.4790 C.3     1  UNL1        0.2591
     15 C         143.4602  138.3908  166.1178 C.3     1  UNL1        0.0398
     16 C         143.4778  139.0204  164.7564 C.ar    1  UNL1        0.0279
     17 C         144.6962  139.4874  164.0167 C.ar    1  UNL1        0.1013
     18 N         144.2514  140.0492  162.6989 N.ar    1  UNL1       -0.2378
     19 C         142.7582  139.9294  162.6243 C.ar    1  UNL1        0.1319
     20 S         142.2800  139.2936  163.8959 S.2     1  UNL1       -0.0715
     21 C         137.9081  141.4869  163.1785 C.3     1  UNL1        0.1520
     22 C         138.2357  140.1725  163.8228 C.ar    1  UNL1        0.0818
     23 C         138.2342  140.0491  165.3177 C.ar    1  UNL1        0.0167
     24 C         138.5618  138.7347  165.9620 C.ar    1  UNL1        0.0029
     25 C         138.8909  137.5438  165.1113 C.ar    1  UNL1        0.0207
     26 C         138.8924  137.6674  163.6164 C.ar    1  UNL1        0.0985
     27 N         138.5648  138.9817  162.9722 N.ar    1  UNL1       -0.2462
@<TRIPOS>BOND
     1    15    16    1
     2    16    17   ar
     3    17    18   ar
     4    18    19   ar
     5    19    14    1
     6    14    13    1
     7    13     1    1
     8     1     2   ar
     9     2     3   ar
    10     3     4    1
    11     3     5   ar
    12     5     6   ar
    13     6     7   ar
    14     7     8   ar
    15     8     9   ar
    16     9    21    1
    17    21    22    1
    18    22    23   ar
    19    23    24   ar
    20    24    25   ar
    21    25    26   ar
    22    26    27   ar
    23     9    10   ar
    24    19    20   ar
    25    20    16   ar
    26    10     1   ar
    27    10     6   ar
    28    27    22   ar
    29     4    11    1
    30     4    12    1
@<TRIPOS>MOLECULE
*****
 27 30 0 0 0
SMALL
GASTEIGER

@<TRIPOS>ATOM
      1 C         140.0288  140.1512  167.7456 C.ar    1  UNL1        0.2454
      2 N         138.8412  139.6778  168.5301 N.ar    1  UNL1       -0.1778
      3 C         138.6899  140.0678  169.9705 C.ar    1  UNL1        0.2163
      4 N         137.5022  139.5944  170.7551 N.pl3   1  UNL1       -0.3274
      5 N         139.7263  140.9314  170.6266 N.ar    1  UNL1       -0.2123
      6 C         140.9139  141.4048  169.8421 C.ar    1  UNL1        0.1060
      7 C         142.0883  142.2594  170.2167 C.ar    1  UNL1        0.0395
      8 C         142.9654  142.3975  169.0078 C.ar    1  UNL1        0.0779
      9 N         142.3331  141.6283  167.8860 N.ar    1  UNL1       -0.3154
     10 C         141.0651  141.0147  168.4016 C.ar    1  UNL1        0.1322
     11 H         136.8220  139.0276  170.3245 H       1  UNL1        0.1452
     12 H         137.4030  139.8504  171.7005 H       1  UNL1        0.1452
     13 O         140.1800  139.7612  166.3052 O.3     1  UNL1       -0.4519
     14 C         138.9655  139.4580  165.4787 C.3     1  UNL1        0.2591
     15 C         137.6256  144.0509  163.2449 C.3     1  UNL1        0.0398
     16 C         137.8360  142.5834  163.4735 C.ar    1  UNL1        0.0279
     17 C         137.4870  141.4830  162.5159 C.ar    1  UNL1        0.1013
     18 N         137.8677  140.1782  163.1504 N.ar    1  UNL1       -0.2378
     19 C         138.4518  140.4723  164.5003 C.ar    1  UNL1        0.1319
     20 S         138.4323  141.9588  164.7000 S.2     1  UNL1       -0.0715
     21 C         142.8737  141.4959  166.4931 C.3     1  UNL1        0.1520
     22 C         142.8647  142.6778  165.5695 C.ar    1  UNL1        0.0818
     23 C         144.1351  143.4280  165.2992 C.ar    1  UNL1        0.0167
     24 C         144.1262  144.6099  164.3756 C.ar    1  UNL1        0.0029
     25 C         142.8467  145.0417  163.7224 C.ar    1  UNL1        0.0207
     26 C         141.5762  144.2914  163.9929 C.ar    1  UNL1        0.0985
     27 N         141.5853  143.1095  164.9164 N.ar    1  UNL1       -0.2462
@<TRIPOS>BOND
     1    15    16    1
     2    16    17   ar
     3    17    18   ar
     4    18    19   ar
     5    19    14    1
     6    14    13    1
     7    13     1    1
     8     1     2   ar
     9     2     3   ar
    10     3     4    1
    11     3     5   ar
    12     5     6   ar
    13     6     7   ar
    14     7     8   ar
    15     8     9   ar
    16     9    21    1
    17    21    22    1
    18    22    23   ar
    19    23    24   ar
    20    24    25   ar
    21    25    26   ar
    22    26    27   ar
    23     9    10   ar
    24    19    20   ar
    25    20    16   ar
    26    10     1   ar
    27    10     6   ar
    28    27    22   ar
    29     4    11    1
    30     4    12    1
@<TRIPOS>MOLECULE
*****
 27 30 0 0 0
SMALL
GASTEIGER

@<TRIPOS>ATOM
      1 C         137.8311  140.9042  163.2124 C.ar    1  UNL1        0.2454
      2 N         137.4928  141.0666  161.7601 N.ar    1  UNL1       -0.1778
      3 C         137.6688  139.9147  160.8157 C.ar    1  UNL1        0.2163
      4 N         137.3305  140.0771  159.3633 N.pl3   1  UNL1       -0.3274
      5 N         138.1832  138.6002  161.3235 N.ar    1  UNL1       -0.2123
      6 C         138.5214  138.4379  162.7758 C.ar    1  UNL1        0.1060
      7 C         139.0440  137.2710  163.5602 C.ar    1  UNL1        0.0395
      8 C         139.1909  137.7018  164.9895 C.ar    1  UNL1        0.0779
      9 N         138.7592  139.1349  165.0884 N.ar    1  UNL1       -0.3154
     10 C         138.3454  139.5898  163.7203 C.ar    1  UNL1        0.1322
     11 H         136.9929  140.9397  159.0300 H       1  UNL1        0.1452
     12 H         137.4461  139.3210  158.7434 H       1  UNL1        0.1452
     13 O         137.6550  142.0562  164.1568 O.3     1  UNL1       -0.4519
     14 C         137.5488  143.4540  163.6232 C.3     1  UNL1        0.2591
     15 C         142.4916  145.3063  163.7592 C.3     1  UNL1        0.0398
     16 C         141.0632  145.0804  163.3607 C.ar    1  UNL1        0.0279
     17 C         140.3433  145.7627  162.2355 C.ar    1  UNL1        0.1013
     18 N         138.9392  145.2365  162.1969 N.ar    1  UNL1       -0.2378
     19 C         138.7913  144.2290  163.2982 C.ar    1  UNL1        0.1319
     20 S         140.1040  144.1325  164.0175 S.2     1  UNL1       -0.0715
     21 C         138.7439  139.9670  166.3364 C.3     1  UNL1        0.1520
     22 C         139.8956  139.9022  167.2952 C.ar    1  UNL1        0.0818
     23 C         141.3018  139.8516  166.7759 C.ar    1  UNL1        0.0167
     24 C         142.4536  139.7868  167.7346 C.ar    1  UNL1        0.0029
     25 C         142.1989  139.7725  169.2129 C.ar    1  UNL1        0.0207
     26 C         140.7926  139.8231  169.7322 C.ar    1  UNL1        0.0985
     27 N         139.6410  139.8879  168.7734 N.ar    1  UNL1       -0.2462
@<TRIPOS>BOND
     1    15    16    1
     2    16    17   ar
     3    17    18   ar
     4    18    19   ar
     5    19    14    1
     6    14    13    1
     7    13     1    1
     8     1     2   ar
     9     2     3   ar
    10     3     4    1
    11     3     5   ar
    12     5     6   ar
    13     6     7   ar
    14     7     8   ar
    15     8     9   ar
    16     9    21    1
    17    21    22    1
    18    22    23   ar
    19    23    24   ar
    20    24    25   ar
    21    25    26   ar
    22    26    27   ar
    23     9    10   ar
    24    19    20   ar
    25    20    16   ar
    26    10     1   ar
    27    10     6   ar
    28    27    22   ar
    29     4    11    1
    30     4    12    1
@<TRIPOS>MOLECULE
*****
 27 30 0 0 0
SMALL
GASTEIGER

@<TRIPOS>ATOM
      1 C         141.1124  144.2705  163.7851 C.ar    1  UNL1        0.2454
      2 N         140.8118  145.3770  162.8180 N.ar    1  UNL1       -0.1778
      3 C         139.4372  145.5083  162.2323 C.ar    1  UNL1        0.2163
      4 N         139.1366  146.6149  161.2652 N.pl3   1  UNL1       -0.3274
      5 N         138.3631  144.5331  162.6136 N.ar    1  UNL1       -0.2123
      6 C         138.6638  143.4265  163.5807 C.ar    1  UNL1        0.1060
      7 C         137.8143  142.3240  164.1400 C.ar    1  UNL1        0.0395
      8 C         138.6640  141.5113  165.0714 C.ar    1  UNL1        0.0779
      9 N         140.0386  142.1116  165.0877 N.ar    1  UNL1       -0.3154
     10 C         140.0384  143.2952  164.1664 C.ar    1  UNL1        0.1322
     11 H         139.8415  147.2550  161.0150 H       1  UNL1        0.1452
     12 H         138.2343  146.7011  160.8808 H       1  UNL1        0.1452
     13 O         142.4871  144.1392  164.3708 O.3     1  UNL1       -0.4519
     14 C         143.6246  143.6652  163.5156 C.3     1  UNL1        0.2591
     15 C         143.6200  138.5071  162.3863 C.3     1  UNL1        0.0398
     16 C         143.9859  139.8392  162.9710 C.ar    1  UNL1        0.0279
     17 C         145.1083  140.1026  163.9305 C.ar    1  UNL1        0.1013
     18 N         145.1096  141.5679  164.2513 N.ar    1  UNL1       -0.2378
     19 C         143.9880  142.2100  163.4901 C.ar    1  UNL1        0.1319
     20 S         143.2934  141.1417  162.6988 S.2     1  UNL1       -0.0715
     21 C         141.2079  141.6152  165.8854 C.3     1  UNL1        0.1520
     22 C         141.4483  142.1399  167.2700 C.ar    1  UNL1        0.0818
     23 C         140.3600  142.8779  167.9917 C.ar    1  UNL1        0.0167
     24 C         140.6003  143.4026  169.3762 C.ar    1  UNL1        0.0029
     25 C         141.9289  143.1891  170.0390 C.ar    1  UNL1        0.0207
     26 C         143.0172  142.4510  169.3172 C.ar    1  UNL1        0.0985
     27 N         142.7768  141.9264  167.9328 N.ar    1  UNL1       -0.2462
@<TRIPOS>BOND
     1    15    16    1
     2    16    17   ar
     3    17    18   ar
     4    18    19   ar
     5    19    14    1
     6    14    13    1
     7    13     1    1
     8     1     2   ar
     9     2     3   ar
    10     3     4    1
    11     3     5   ar
    12     5     6   ar
    13     6     7   ar
    14     7     8   ar
    15     8     9   ar
    16     9    21    1
    17    21    22    1
    18    22    23   ar
    19    23    24   ar
    20    24    25   ar
    21    25    26   ar
    22    26    27   ar
    23     9    10   ar
    24    19    20   ar
    25    20    16   ar
    26    10     1   ar
    27    10     6   ar
    28    27    22   ar
    29     4    11    1
    30     4    12    1
@<TRIPOS>MOLECULE
*****
 27 30 0 0 0
SMALL
GASTEIGER

@<TRIPOS>ATOM
      1 C         139.4743  144.0320  164.0431 C.ar    1  UNL1        0.2454
      2 N         138.8484  144.9549  163.0399 N.ar    1  UNL1       -0.1778
      3 C         139.7159  145.7777  162.1343 C.ar    1  UNL1        0.2163
      4 N         139.0900  146.7006  161.1310 N.pl3   1  UNL1       -0.3274
      5 N         141.2095  145.6777  162.2319 N.ar    1  UNL1       -0.2123
      6 C         141.8354  144.7549  163.2352 C.ar    1  UNL1        0.1060
      7 C         143.2672  144.4475  163.5598 C.ar    1  UNL1        0.0395
      8 C         143.2845  143.4347  164.6660 C.ar    1  UNL1        0.0779
      9 N         141.8634  143.1160  165.0251 N.ar    1  UNL1       -0.3154
     10 C         140.9678  143.9320  164.1408 C.ar    1  UNL1        0.1322
     11 H         138.1098  146.7663  161.0669 H       1  UNL1        0.1452
     12 H         139.6594  147.2407  160.5366 H       1  UNL1        0.1452
     13 O         138.6067  143.2091  164.9488 O.3     1  UNL1       -0.4519
     14 C         137.5977  142.2645  164.3661 C.3     1  UNL1        0.2591
     15 C         139.2898  137.2976  164.9555 C.3     1  UNL1        0.0398
     16 C         138.7589  138.5609  164.3453 C.ar    1  UNL1        0.0279
     17 C         138.3836  138.7550  162.9062 C.ar    1  UNL1        0.1013
     18 N         137.9029  140.1660  162.7387 N.ar    1  UNL1       -0.2378
     19 C         137.9812  140.8439  164.0744 C.ar    1  UNL1        0.1319
     20 S         138.5102  139.8520  165.0674 S.2     1  UNL1       -0.0715
     21 C         141.4164  142.1509  166.0829 C.3     1  UNL1        0.1520
     22 C         141.7048  142.4347  167.5273 C.ar    1  UNL1        0.0818
     23 C         143.0544  142.1163  168.0992 C.ar    1  UNL1        0.0167
     24 C         143.3428  142.4001  169.5436 C.ar    1  UNL1        0.0029
     25 C         142.2815  143.0023  170.4160 C.ar    1  UNL1        0.0207
     26 C         140.9319  143.3207  169.8440 C.ar    1  UNL1        0.0985
     27 N         140.6436  143.0369  168.3997 N.ar    1  UNL1       -0.2462
@<TRIPOS>BOND
     1    15    16    1
     2    16    17   ar
     3    17    18   ar
     4    18    19   ar
     5    19    14    1
     6    14    13    1
     7    13     1    1
     8     1     2   ar
     9     2     3   ar
    10     3     4    1
    11     3     5   ar
    12     5     6   ar
    13     6     7   ar
    14     7     8   ar
    15     8     9   ar
    16     9    21    1
    17    21    22    1
    18    22    23   ar
    19    23    24   ar
    20    24    25   ar
    21    25    26   ar
    22    26    27   ar
    23     9    10   ar
    24    19    20   ar
    25    20    16   ar
    26    10     1   ar
    27    10     6   ar
    28    27    22   ar
    29     4    11    1
    30     4    12    1
@<TRIPOS>MOLECULE
*****
 27 30 0 0 0
SMALL
GASTEIGER

@<TRIPOS>ATOM
      1 C         144.2447  139.5039  162.9128 C.ar    1  UNL1        0.2454
      2 N         144.4230  139.6670  161.4324 N.ar    1  UNL1       -0.1778
      3 C         143.4739  138.9962  160.4843 C.ar    1  UNL1        0.2163
      4 N         143.6522  139.1593  159.0038 N.pl3   1  UNL1       -0.3274
      5 N         142.3463  138.1622  161.0165 N.ar    1  UNL1       -0.2123
      6 C         142.1680  137.9992  162.4969 C.ar    1  UNL1        0.1060
      7 C         141.1576  137.2445  163.3090 C.ar    1  UNL1        0.0395
      8 C         141.4824  137.4489  164.7591 C.ar    1  UNL1        0.0779
      9 N         142.6935  138.3299  164.8431 N.ar    1  UNL1       -0.3154
     10 C         143.1172  138.6701  163.4450 C.ar    1  UNL1        0.1322
     11 H         144.3922  139.7066  158.6544 H       1  UNL1        0.1452
     12 H         143.0292  138.7190  158.3815 H       1  UNL1        0.1452
     13 O         145.1939  140.1748  163.8609 O.3     1  UNL1       -0.4519
     14 C         145.5621  141.6150  163.6599 C.3     1  UNL1        0.2591
     15 C         141.1025  144.3650  164.3153 C.3     1  UNL1        0.0398
     16 C         142.4370  143.9126  163.8011 C.ar    1  UNL1        0.0279
     17 C         143.2275  144.5655  162.7063 C.ar    1  UNL1        0.1013
     18 N         144.4944  143.7843  162.5201 N.ar    1  UNL1       -0.2378
     19 C         144.4868  142.6486  163.4999 C.ar    1  UNL1        0.1319
     20 S         143.2153  142.7279  164.2916 S.2     1  UNL1       -0.0715
     21 C         143.3632  138.7900  166.1040 C.3     1  UNL1        0.1520
     22 C         142.5357  139.2123  167.2817 C.ar    1  UNL1        0.0818
     23 C         141.2349  139.9274  167.0665 C.ar    1  UNL1        0.0167
     24 C         140.4074  140.3498  168.2441 C.ar    1  UNL1        0.0029
     25 C         140.8809  140.0569  169.6371 C.ar    1  UNL1        0.0207
     26 C         142.1818  139.3417  169.8522 C.ar    1  UNL1        0.0985
     27 N         143.0092  138.9195  168.6746 N.ar    1  UNL1       -0.2462
@<TRIPOS>BOND
     1    15    16    1
     2    16    17   ar
     3    17    18   ar
     4    18    19   ar
     5    19    14    1
     6    14    13    1
     7    13     1    1
     8     1     2   ar
     9     2     3   ar
    10     3     4    1
    11     3     5   ar
    12     5     6   ar
    13     6     7   ar
    14     7     8   ar
    15     8     9   ar
    16     9    21    1
    17    21    22    1
    18    22    23   ar
    19    23    24   ar
    20    24    25   ar
    21    25    26   ar
    22    26    27   ar
    23     9    10   ar
    24    19    20   ar
    25    20    16   ar
    26    10     1   ar
    27    10     6   ar
    28    27    22   ar
    29     4    11    1
    30     4    12    1
@<TRIPOS>MOLECULE
*****
 27 30 0 0 0
SMALL
GASTEIGER

@<TRIPOS>ATOM
      1 C         142.2820  141.9687  167.2658 C.ar    1  UNL1        0.2454
      2 N         143.4697  142.5286  167.9910 N.ar    1  UNL1       -0.1778
      3 C         143.5868  142.3643  169.4773 C.ar    1  UNL1        0.2163
      4 N         144.7745  142.9242  170.2026 N.pl3   1  UNL1       -0.3274
      5 N         142.5162  141.6400  170.2385 N.ar    1  UNL1       -0.2123
      6 C         141.3285  141.0801  169.5133 C.ar    1  UNL1        0.1060
      7 C         140.1248  140.3242  169.9923 C.ar    1  UNL1        0.0395
      8 C         139.2637  140.0214  168.8020 C.ar    1  UNL1        0.0779
      9 N         139.9353  140.5902  167.5873 N.ar    1  UNL1       -0.3154
     10 C         141.2114  141.2445  168.0269 C.ar    1  UNL1        0.1322
     11 H         145.4772  143.3996  169.7030 H       1  UNL1        0.1452
     12 H         144.8514  142.8163  171.1781 H       1  UNL1        0.1452
     13 O         142.1649  142.1331  165.7794 O.3     1  UNL1       -0.4519
     14 C         142.9044  143.2391  165.0866 C.3     1  UNL1        0.2591
     15 C         139.8838  146.1517  161.8814 C.3     1  UNL1        0.0398
     16 C         140.9384  145.2095  162.3815 C.ar    1  UNL1        0.0279
     17 C         141.9375  144.4758  161.5368 C.ar    1  UNL1        0.1013
     18 N         142.7956  143.6484  162.4473 N.ar    1  UNL1       -0.2378
     19 C         142.3268  143.8707  163.8547 C.ar    1  UNL1        0.1319
     20 S         141.1790  144.8355  163.8140 S.2     1  UNL1       -0.0715
     21 C         139.4210  140.5173  166.1801 C.3     1  UNL1        0.1520
     22 C         139.8490  139.3945  165.2823 C.ar    1  UNL1        0.0818
     23 C         141.1884  138.7479  165.4766 C.ar    1  UNL1        0.0167
     24 C         141.6166  137.6251  164.5788 C.ar    1  UNL1        0.0029
     25 C         140.7051  137.1490  163.4866 C.ar    1  UNL1        0.0207
     26 C         139.3657  137.7957  163.2923 C.ar    1  UNL1        0.0985
     27 N         138.9377  138.9185  164.1901 N.ar    1  UNL1       -0.2462
@<TRIPOS>BOND
     1    15    16    1
     2    16    17   ar
     3    17    18   ar
     4    18    19   ar
     5    19    14    1
     6    14    13    1
     7    13     1    1
     8     1     2   ar
     9     2     3   ar
    10     3     4    1
    11     3     5   ar
    12     5     6   ar
    13     6     7   ar
    14     7     8   ar
    15     8     9   ar
    16     9    21    1
    17    21    22    1
    18    22    23   ar
    19    23    24   ar
    20    24    25   ar
    21    25    26   ar
    22    26    27   ar
    23     9    10   ar
    24    19    20   ar
    25    20    16   ar
    26    10     1   ar
    27    10     6   ar
    28    27    22   ar
    29     4    11    1
    30     4    12    1
@<TRIPOS>MOLECULE
*****
 27 30 0 0 0
SMALL
GASTEIGER

@<TRIPOS>ATOM
      1 C         139.3815  141.4295  164.3909 C.ar    1  UNL1        0.2454
      2 N         138.8392  142.7952  164.0896 N.ar    1  UNL1       -0.1778
      3 C         137.8760  142.9865  162.9558 C.ar    1  UNL1        0.2163
      4 N         137.3338  144.3523  162.6546 N.pl3   1  UNL1       -0.3274
      5 N         137.4550  141.8119  162.1232 N.ar    1  UNL1       -0.2123
      6 C         137.9972  140.4462  162.4244 C.ar    1  UNL1        0.1060
      7 C         137.7661  139.1105  161.7822 C.ar    1  UNL1        0.0395
      8 C         138.5865  138.0938  162.5192 C.ar    1  UNL1        0.0779
      9 N         139.3247  138.8011  163.6168 N.ar    1  UNL1       -0.3154
     10 C         138.9605  140.2550  163.5582 C.ar    1  UNL1        0.1322
     11 H         137.6101  145.1232  163.2011 H       1  UNL1        0.1452
     12 H         136.7016  144.4778  161.9104 H       1  UNL1        0.1452
     13 O         140.3447  141.2383  165.5247 O.3     1  UNL1       -0.4519
     14 C         141.3048  142.3328  165.8859 C.3     1  UNL1        0.2591
     15 C         144.6042  143.1228  161.8399 C.3     1  UNL1        0.0398
     16 C         144.0736  142.8901  163.2235 C.ar    1  UNL1        0.0279
     17 C         144.8941  142.7617  164.4725 C.ar    1  UNL1        0.1013
     18 N         143.9568  142.5372  165.6218 N.ar    1  UNL1       -0.2378
     19 C         142.5570  142.5270  165.0832 C.ar    1  UNL1        0.1319
     20 S         142.6291  142.7451  163.6009 S.2     1  UNL1       -0.0715
     21 C         140.2624  138.1660  164.6003 C.3     1  UNL1        0.1520
     22 C         141.7276  138.4839  164.5527 C.ar    1  UNL1        0.0818
     23 C         142.5410  138.4626  165.8127 C.ar    1  UNL1        0.0167
     24 C         144.0061  138.7805  165.7651 C.ar    1  UNL1        0.0029
     25 C         144.6578  139.1198  164.4573 C.ar    1  UNL1        0.0207
     26 C         143.8442  139.1412  163.1972 C.ar    1  UNL1        0.0985
     27 N         142.3792  138.8232  163.2449 N.ar    1  UNL1       -0.2462
@<TRIPOS>BOND
     1    15    16    1
     2    16    17   ar
     3    17    18   ar
     4    18    19   ar
     5    19    14    1
     6    14    13    1
     7    13     1    1
     8     1     2   ar
     9     2     3   ar
    10     3     4    1
    11     3     5   ar
    12     5     6   ar
    13     6     7   ar
    14     7     8   ar
    15     8     9   ar
    16     9    21    1
    17    21    22    1
    18    22    23   ar
    19    23    24   ar
    20    24    25   ar
    21    25    26   ar
    22    26    27   ar
    23     9    10   ar
    24    19    20   ar
    25    20    16   ar
    26    10     1   ar
    27    10     6   ar
    28    27    22   ar
    29     4    11    1
    30     4    12    1
