@<TRIPOS>MOLECULE
*****
 35 39 0 0 0
SMALL
GASTEIGER

@<TRIPOS>ATOM
      1 C         141.2929  138.8662  164.9191 C.ar    1  UNL1        0.1879
      2 N         140.7234  137.6178  164.3131 N.ar    1  UNL1       -0.1271
      3 N         141.1755  137.5479  162.8845 N.ar    1  UNL1       -0.1330
      4 C         142.0245  138.7531  162.6076 C.ar    1  UNL1        0.1468
      5 N         142.0971  139.5678  163.8650 N.ar    1  UNL1       -0.2739
      6 C         142.8429  140.8577  164.0379 C.ar    1  UNL1        0.0939
      7 C         142.0921  142.1544  164.1101 C.ar    1  UNL1        0.0199
      8 C         142.8379  143.4443  164.2830 C.ar    1  UNL1        0.0016
      9 C         144.3345  143.4376  164.3838 C.ar    1  UNL1        0.0024
     10 C         145.0853  142.1410  164.3117 C.ar    1  UNL1        0.0311
     11 C         144.3394  140.8511  164.1388 C.ar    1  UNL1        0.1562
     12 F         145.0903  139.5545  164.0667 F       1  UNL1       -0.2026
     13 C         140.6944  140.2613  169.1552 C.ar    1  UNL1        0.1576
     14 C         139.5155  140.1192  168.2387 C.ar    1  UNL1        0.0402
     15 C         139.7150  139.6542  166.8267 C.ar    1  UNL1        0.0254
     16 C         141.0934  139.3312  166.3311 C.ar    1  UNL1        0.1176
     17 N         142.2723  139.4733  167.2476 N.ar    1  UNL1       -0.2376
     18 C         142.0728  139.9383  168.6597 C.ar    1  UNL1        0.1357
     19 O         140.4948  140.7263  170.5673 O.3     1  UNL1       -0.4739
     20 C         140.5069  143.2365  169.8973 C.3     1  UNL1        0.0512
     21 C         140.7278  142.1647  170.9232 C.3     1  UNL1        0.2056
     22 C         142.6850  139.0853  161.3025 C.3     1  UNL1        0.0624
     23 C         144.0912  139.0367  160.7828 C.3     1  UNL1        0.0272
     24 C         143.6190  139.5551  159.4567 C.3     1  UNL1        0.0728
     25 C         142.2127  139.6036  159.9765 C.3     1  UNL1        0.0272
     26 N         144.2794  139.8873  158.1515 N.am    1  UNL1       -0.3012
     27 C         144.8128  141.2685  157.9111 C.2     1  UNL1        0.2635
     28 O         144.6857  142.3174  158.9758 O.2     1  UNL1       -0.2685
     29 H         144.3628  139.1988  157.4528 H       1  UNL1        0.1497
     30 C         145.4732  141.6008  156.6059 C.ar    1  UNL1        0.1345
     31 C         146.7234  142.4294  156.5875 C.ar    1  UNL1        0.0238
     32 C         147.3839  142.7617  155.2823 C.ar    1  UNL1        0.0033
     33 C         146.7940  142.2653  153.9955 C.ar    1  UNL1        0.0207
     34 C         145.5438  141.4367  154.0139 C.ar    1  UNL1        0.0990
     35 N         144.8834  141.1044  155.3192 N.ar    1  UNL1       -0.2393
@<TRIPOS>BOND
     1    20    21    1
     2    21    19    1
     3    19    13    1
     4    13    14   ar
     5    14    15   ar
     6    15    16   ar
     7    16     1    1
     8     1     2   ar
     9     2     3   ar
    10     3     4   ar
    11    22     4    1
    12    22    23    1
    13    23    24    1
    14    24    26    1
    15    26    27   am
    16    27    28    2
    17    27    30    1
    18    30    31   ar
    19    31    32   ar
    20    32    33   ar
    21    33    34   ar
    22    34    35   ar
    23    24    25    1
    24     4     5   ar
    25     5     6    1
    26     6     7   ar
    27     7     8   ar
    28     8     9   ar
    29     9    10   ar
    30    10    11   ar
    31    11    12    1
    32    16    17   ar
    33    17    18   ar
    34    18    13   ar
    35     5     1   ar
    36    11     6   ar
    37    25    22    1
    38    35    30   ar
    39    26    29    1
@<TRIPOS>MOLECULE
*****
 35 39 0 0 0
SMALL
GASTEIGER

@<TRIPOS>ATOM
      1 C         140.0067  138.9449  165.1433 C.ar    1  UNL1        0.1879
      2 N         140.0485  137.5376  164.6258 N.ar    1  UNL1       -0.1271
      3 N         139.6101  137.5579  163.1915 N.ar    1  UNL1       -0.1330
      4 C         139.2973  138.9778  162.8225 C.ar    1  UNL1        0.1468
      5 N         139.5425  139.8350  164.0288 N.ar    1  UNL1       -0.2739
      6 C         139.3560  141.3213  164.1068 C.ar    1  UNL1        0.0939
      7 C         137.9786  141.8979  164.2499 C.ar    1  UNL1        0.0199
      8 C         137.7922  143.3843  164.3279 C.ar    1  UNL1        0.0016
      9 C         138.9831  144.2940  164.2628 C.ar    1  UNL1        0.0024
     10 C         140.3604  143.7173  164.1197 C.ar    1  UNL1        0.0311
     11 C         140.5468  142.2310  164.0417 C.ar    1  UNL1        0.1562
     12 F         141.9242  141.6544  163.8987 F       1  UNL1       -0.2026
     13 C         141.0850  140.2648  169.3081 C.ar    1  UNL1        0.1576
     14 C         139.6453  140.1919  168.8935 C.ar    1  UNL1        0.0402
     15 C         139.2858  139.7520  167.5053 C.ar    1  UNL1        0.0254
     16 C         140.3661  139.3849  166.5316 C.ar    1  UNL1        0.1176
     17 N         141.8059  139.4578  166.9461 N.ar    1  UNL1       -0.2376
     18 C         142.1653  139.8978  168.3344 C.ar    1  UNL1        0.1357
     19 O         141.4444  140.7048  170.6964 O.3     1  UNL1       -0.4739
     20 C         141.5651  143.1876  169.9408 C.3     1  UNL1        0.0512
     21 C         141.4774  142.1656  171.0352 C.3     1  UNL1        0.2056
     22 C         138.8227  139.4564  161.4825 C.3     1  UNL1        0.0624
     23 C         137.5511  140.0563  160.9599 C.3     1  UNL1        0.0272
     24 C         138.1515  140.1333  159.5874 C.3     1  UNL1        0.0728
     25 C         139.4231  139.5334  160.1101 C.3     1  UNL1        0.0272
     26 N         137.6770  140.6120  158.2474 N.am    1  UNL1       -0.3012
     27 C         137.8448  142.0521  157.8629 C.2     1  UNL1        0.2635
     28 O         138.4871  143.0136  158.8184 O.2     1  UNL1       -0.2685
     29 H         137.2554  139.9809  157.6203 H       1  UNL1        0.1497
     30 C         137.3703  142.5308  156.5228 C.ar    1  UNL1        0.1345
     31 C         136.4205  141.6921  155.7200 C.ar    1  UNL1        0.0238
     32 C         135.9460  142.1709  154.3799 C.ar    1  UNL1        0.0033
     33 C         136.4213  143.4883  153.8427 C.ar    1  UNL1        0.0207
     34 C         137.3710  144.3270  154.6456 C.ar    1  UNL1        0.0990
     35 N         137.8455  143.8482  155.9857 N.ar    1  UNL1       -0.2393
@<TRIPOS>BOND
     1    20    21    1
     2    21    19    1
     3    19    13    1
     4    13    14   ar
     5    14    15   ar
     6    15    16   ar
     7    16     1    1
     8     1     2   ar
     9     2     3   ar
    10     3     4   ar
    11    22     4    1
    12    22    23    1
    13    23    24    1
    14    24    26    1
    15    26    27   am
    16    27    28    2
    17    27    30    1
    18    30    31   ar
    19    31    32   ar
    20    32    33   ar
    21    33    34   ar
    22    34    35   ar
    23    24    25    1
    24     4     5   ar
    25     5     6    1
    26     6     7   ar
    27     7     8   ar
    28     8     9   ar
    29     9    10   ar
    30    10    11   ar
    31    11    12    1
    32    16    17   ar
    33    17    18   ar
    34    18    13   ar
    35     5     1   ar
    36    11     6   ar
    37    25    22    1
    38    35    30   ar
    39    26    29    1
@<TRIPOS>MOLECULE
*****
 35 39 0 0 0
SMALL
GASTEIGER

@<TRIPOS>ATOM
      1 C         139.4564  139.9098  166.8896 C.ar    1  UNL1        0.1879
      2 N         138.8026  139.4560  168.1611 N.ar    1  UNL1       -0.1271
      3 N         139.4643  140.1693  169.3028 N.ar    1  UNL1       -0.1330
      4 C         140.5271  141.0638  168.7370 C.ar    1  UNL1        0.1468
      5 N         140.5222  140.9035  167.2456 N.ar    1  UNL1       -0.2739
      6 C         141.4248  141.6123  166.2797 C.ar    1  UNL1        0.0939
      7 C         142.7877  141.0602  165.9832 C.ar    1  UNL1        0.0199
      8 C         143.6902  141.7691  165.0173 C.ar    1  UNL1        0.0016
      9 C         143.2299  143.0300  164.3479 C.ar    1  UNL1        0.0024
     10 C         141.8671  143.5821  164.6444 C.ar    1  UNL1        0.0311
     11 C         140.9646  142.8732  165.6103 C.ar    1  UNL1        0.1562
     12 F         139.6017  143.4254  165.9067 F       1  UNL1       -0.2026
     13 C         138.4052  138.5319  162.7367 C.ar    1  UNL1        0.1576
     14 C         139.1476  137.6170  163.6651 C.ar    1  UNL1        0.0402
     15 C         139.4980  138.0763  165.0494 C.ar    1  UNL1        0.0254
     16 C         139.1060  139.4505  165.5053 C.ar    1  UNL1        0.1176
     17 N         138.3637  140.3654  164.5770 N.ar    1  UNL1       -0.2376
     18 C         138.0133  139.9061  163.1927 C.ar    1  UNL1        0.1357
     19 O         138.0548  138.0727  161.3524 O.3     1  UNL1       -0.4739
     20 C         140.2828  139.0601  160.4519 C.3     1  UNL1        0.0512
     21 C         139.0284  138.2687  160.2283 C.3     1  UNL1        0.2056
     22 C         141.4353  141.9612  169.5243 C.3     1  UNL1        0.0624
     23 C         141.4355  143.4171  169.8853 C.3     1  UNL1        0.0272
     24 C         142.7197  143.2303  170.6377 C.3     1  UNL1        0.0728
     25 C         142.7194  141.7743  170.2766 C.3     1  UNL1        0.0272
     26 N         143.6279  144.1276  171.4250 N.am    1  UNL1       -0.3012
     27 C         145.0834  144.2168  171.0732 C.2     1  UNL1        0.2635
     28 O         145.6305  143.4086  169.9341 O.2     1  UNL1       -0.2685
     29 H         143.2688  144.6580  172.1726 H       1  UNL1        0.1497
     30 C         145.9917  145.1141  171.8605 C.ar    1  UNL1        0.1345
     31 C         145.8536  146.6037  171.7510 C.ar    1  UNL1        0.0238
     32 C         146.7620  147.5010  172.5383 C.ar    1  UNL1        0.0033
     33 C         147.8084  146.9087  173.4351 C.ar    1  UNL1        0.0207
     34 C         147.9464  145.4190  173.5446 C.ar    1  UNL1        0.0990
     35 N         147.0381  144.5217  172.7572 N.ar    1  UNL1       -0.2393
@<TRIPOS>BOND
     1    20    21    1
     2    21    19    1
     3    19    13    1
     4    13    14   ar
     5    14    15   ar
     6    15    16   ar
     7    16     1    1
     8     1     2   ar
     9     2     3   ar
    10     3     4   ar
    11    22     4    1
    12    22    23    1
    13    23    24    1
    14    24    26    1
    15    26    27   am
    16    27    28    2
    17    27    30    1
    18    30    31   ar
    19    31    32   ar
    20    32    33   ar
    21    33    34   ar
    22    34    35   ar
    23    24    25    1
    24     4     5   ar
    25     5     6    1
    26     6     7   ar
    27     7     8   ar
    28     8     9   ar
    29     9    10   ar
    30    10    11   ar
    31    11    12    1
    32    16    17   ar
    33    17    18   ar
    34    18    13   ar
    35     5     1   ar
    36    11     6   ar
    37    25    22    1
    38    35    30   ar
    39    26    29    1
@<TRIPOS>MOLECULE
*****
 35 39 0 0 0
SMALL
GASTEIGER

@<TRIPOS>ATOM
      1 C         139.9131  142.5000  165.7476 C.ar    1  UNL1        0.1879
      2 N         139.7849  143.5580  166.8031 N.ar    1  UNL1       -0.1271
      3 N         140.4380  143.0473  168.0532 N.ar    1  UNL1       -0.1330
      4 C         140.9698  141.6736  167.7702 C.ar    1  UNL1        0.1468
      5 N         140.6455  141.3354  166.3453 N.ar    1  UNL1       -0.2739
      6 C         140.9925  140.0569  165.6416 C.ar    1  UNL1        0.0939
      7 C         142.3639  139.8671  165.0641 C.ar    1  UNL1        0.0199
      8 C         142.7110  138.5886  164.3604 C.ar    1  UNL1        0.0016
      9 C         141.6868  137.5001  164.2342 C.ar    1  UNL1        0.0024
     10 C         140.3155  137.6899  164.8117 C.ar    1  UNL1        0.0311
     11 C         139.9684  138.9684  165.5154 C.ar    1  UNL1        0.1562
     12 F         138.5970  139.1581  166.0928 F       1  UNL1       -0.2026
     13 C         138.3715  142.7722  161.5287 C.ar    1  UNL1        0.1576
     14 C         137.6594  141.9160  162.5336 C.ar    1  UNL1        0.0402
     15 C         138.1733  141.8252  163.9399 C.ar    1  UNL1        0.0254
     16 C         139.3992  142.5907  164.3413 C.ar    1  UNL1        0.1176
     17 N         140.1112  143.4469  163.3363 N.ar    1  UNL1       -0.2376
     18 C         139.5973  143.5377  161.9300 C.ar    1  UNL1        0.1357
     19 O         137.8576  142.8629  160.1223 O.3     1  UNL1       -0.4739
     20 C         139.7399  141.9517  158.5807 C.3     1  UNL1        0.0512
     21 C         138.3294  141.8855  159.0869 C.3     1  UNL1        0.2056
     22 C         141.6982  140.7927  168.7416 C.3     1  UNL1        0.0624
     23 C         143.0690  140.7917  169.3506 C.3     1  UNL1        0.0272
     24 C         142.7283  139.5470  170.1153 C.3     1  UNL1        0.0728
     25 C         141.3575  139.5480  169.5062 C.3     1  UNL1        0.0272
     26 N         143.4566  138.6661  171.0867 N.am    1  UNL1       -0.3012
     27 C         144.1302  137.4153  170.6053 C.2     1  UNL1        0.2635
     28 O         144.0755  137.0454  169.1527 O.2     1  UNL1       -0.2685
     29 H         143.4924  138.9089  172.0401 H       1  UNL1        0.1497
     30 C         144.8585  136.5343  171.5767 C.ar    1  UNL1        0.1345
     31 C         145.8897  137.1215  172.4943 C.ar    1  UNL1        0.0238
     32 C         146.6180  136.2405  173.4656 C.ar    1  UNL1        0.0033
     33 C         146.3152  134.7723  173.5193 C.ar    1  UNL1        0.0207
     34 C         145.2840  134.1852  172.6017 C.ar    1  UNL1        0.0990
     35 N         144.5557  135.0662  171.6304 N.ar    1  UNL1       -0.2393
@<TRIPOS>BOND
     1    20    21    1
     2    21    19    1
     3    19    13    1
     4    13    14   ar
     5    14    15   ar
     6    15    16   ar
     7    16     1    1
     8     1     2   ar
     9     2     3   ar
    10     3     4   ar
    11    22     4    1
    12    22    23    1
    13    23    24    1
    14    24    26    1
    15    26    27   am
    16    27    28    2
    17    27    30    1
    18    30    31   ar
    19    31    32   ar
    20    32    33   ar
    21    33    34   ar
    22    34    35   ar
    23    24    25    1
    24     4     5   ar
    25     5     6    1
    26     6     7   ar
    27     7     8   ar
    28     8     9   ar
    29     9    10   ar
    30    10    11   ar
    31    11    12    1
    32    16    17   ar
    33    17    18   ar
    34    18    13   ar
    35     5     1   ar
    36    11     6   ar
    37    25    22    1
    38    35    30   ar
    39    26    29    1
@<TRIPOS>MOLECULE
*****
 35 39 0 0 0
SMALL
GASTEIGER

@<TRIPOS>ATOM
      1 C         140.3251  138.9791  164.9050 C.ar    1  UNL1        0.1879
      2 N         140.4243  137.5694  164.4021 N.ar    1  UNL1       -0.1271
      3 N         139.9832  137.5565  162.9684 N.ar    1  UNL1       -0.1330
      4 C         139.6114  138.9583  162.5853 C.ar    1  UNL1        0.1468
      5 N         139.8227  139.8374  163.7822 N.ar    1  UNL1       -0.2739
      6 C         139.5750  141.3155  163.8451 C.ar    1  UNL1        0.0939
      7 C         140.7274  142.2631  164.0011 C.ar    1  UNL1        0.0199
      8 C         140.4798  143.7412  164.0641 C.ar    1  UNL1        0.0016
      9 C         139.0798  144.2717  163.9711 C.ar    1  UNL1        0.0024
     10 C         137.9275  143.3242  163.8151 C.ar    1  UNL1        0.0311
     11 C         138.1752  141.8461  163.7522 C.ar    1  UNL1        0.1562
     12 F         137.0228  140.8986  163.5962 F       1  UNL1       -0.2026
     13 C         141.3542  140.3859  169.0537 C.ar    1  UNL1        0.1576
     14 C         139.9192  140.2988  168.6257 C.ar    1  UNL1        0.0402
     15 C         139.5762  139.8299  167.2428 C.ar    1  UNL1        0.0254
     16 C         140.6682  139.4480  166.2879 C.ar    1  UNL1        0.1176
     17 N         142.1031  139.5351  166.7160 N.ar    1  UNL1       -0.2376
     18 C         142.4461  140.0040  168.0989 C.ar    1  UNL1        0.1357
     19 O         141.6972  140.8548  170.4366 O.3     1  UNL1       -0.4739
     20 C         141.2312  143.3609  169.9340 C.3     1  UNL1        0.0512
     21 C         141.2579  142.2126  170.8987 C.3     1  UNL1        0.2056
     22 C         139.1153  139.4029  161.2414 C.3     1  UNL1        0.0624
     23 C         139.7633  139.7596  159.9365 C.3     1  UNL1        0.0272
     24 C         138.4137  140.0316  159.3407 C.3     1  UNL1        0.0728
     25 C         137.7658  139.6749  160.6457 C.3     1  UNL1        0.0272
     26 N         137.9176  140.4762  157.9968 N.am    1  UNL1       -0.3012
     27 C         137.8146  141.9391  157.6817 C.2     1  UNL1        0.2635
     28 O         138.2077  142.9574  158.7106 O.2     1  UNL1       -0.2685
     29 H         137.6596  139.8078  157.3215 H       1  UNL1        0.1497
     30 C         137.3184  142.3838  156.3378 C.ar    1  UNL1        0.1345
     31 C         137.6315  143.7644  155.8419 C.ar    1  UNL1        0.0238
     32 C         137.1354  144.2090  154.4979 C.ar    1  UNL1        0.0033
     33 C         136.3261  143.2731  153.6499 C.ar    1  UNL1        0.0207
     34 C         136.0130  141.8925  154.1458 C.ar    1  UNL1        0.0990
     35 N         136.5092  141.4478  155.4898 N.ar    1  UNL1       -0.2393
@<TRIPOS>BOND
     1    20    21    1
     2    21    19    1
     3    19    13    1
     4    13    14   ar
     5    14    15   ar
     6    15    16   ar
     7    16     1    1
     8     1     2   ar
     9     2     3   ar
    10     3     4   ar
    11    22     4    1
    12    22    23    1
    13    23    24    1
    14    24    26    1
    15    26    27   am
    16    27    28    2
    17    27    30    1
    18    30    31   ar
    19    31    32   ar
    20    32    33   ar
    21    33    34   ar
    22    34    35   ar
    23    24    25    1
    24     4     5   ar
    25     5     6    1
    26     6     7   ar
    27     7     8   ar
    28     8     9   ar
    29     9    10   ar
    30    10    11   ar
    31    11    12    1
    32    16    17   ar
    33    17    18   ar
    34    18    13   ar
    35     5     1   ar
    36    11     6   ar
    37    25    22    1
    38    35    30   ar
    39    26    29    1
@<TRIPOS>MOLECULE
*****
 35 39 0 0 0
SMALL
GASTEIGER

@<TRIPOS>ATOM
      1 C         139.4686  142.7784  163.7329 C.ar    1  UNL1        0.1879
      2 N         138.0311  143.0304  163.3867 N.ar    1  UNL1       -0.1271
      3 N         137.9771  143.5520  161.9814 N.ar    1  UNL1       -0.1330
      4 C         139.3814  143.6224  161.4589 C.ar    1  UNL1        0.1468
      5 N         140.3032  143.1443  162.5414 N.ar    1  UNL1       -0.2739
      6 C         141.7973  143.0488  162.4486 C.ar    1  UNL1        0.0939
      7 C         142.4411  141.7672  162.0089 C.ar    1  UNL1        0.0199
      8 C         143.9352  141.6717  161.9161 C.ar    1  UNL1        0.0016
      9 C         144.7855  142.8577  162.2630 C.ar    1  UNL1        0.0024
     10 C         144.1417  144.1392  162.7027 C.ar    1  UNL1        0.0311
     11 C         142.6476  144.2347  162.7955 C.ar    1  UNL1        0.1562
     12 F         142.0040  145.5163  163.2352 F       1  UNL1       -0.2026
     13 C         141.0075  141.2017  167.6566 C.ar    1  UNL1        0.1576
     14 C         140.6930  142.6606  167.5061 C.ar    1  UNL1        0.0402
     15 C         140.1800  143.1862  166.1981 C.ar    1  UNL1        0.0254
     16 C         139.9816  142.2529  165.0408 C.ar    1  UNL1        0.1176
     17 N         140.2961  140.7940  165.1914 N.ar    1  UNL1       -0.2376
     18 C         140.8091  140.2684  166.4993 C.ar    1  UNL1        0.1357
     19 O         141.5204  140.6762  168.9646 O.3     1  UNL1       -0.4739
     20 C         139.0986  140.4347  169.8735 C.3     1  UNL1        0.0512
     21 C         140.5626  140.1257  169.9792 C.3     1  UNL1        0.2056
     22 C         139.7919  144.0889  160.0937 C.3     1  UNL1        0.0624
     23 C         140.6035  145.2335  159.5635 C.3     1  UNL1        0.0272
     24 C         140.3724  144.7486  158.1629 C.3     1  UNL1        0.0728
     25 C         139.5608  143.6039  158.6932 C.3     1  UNL1        0.0272
     26 N         140.7828  145.2151  156.7977 N.am    1  UNL1       -0.3012
     27 C         140.1334  146.4237  156.1915 C.2     1  UNL1        0.2635
     28 O         139.0737  147.1659  156.9505 O.2     1  UNL1       -0.2685
     29 H         141.4784  144.7280  156.2995 H       1  UNL1        0.1497
     30 C         140.5438  146.8903  154.8262 C.ar    1  UNL1        0.1345
     31 C         140.0624  148.2137  154.3097 C.ar    1  UNL1        0.0238
     32 C         140.4729  148.6802  152.9444 C.ar    1  UNL1        0.0033
     33 C         141.3646  147.8233  152.0956 C.ar    1  UNL1        0.0207
     34 C         141.8460  146.4998  152.6121 C.ar    1  UNL1        0.0990
     35 N         141.4356  146.0333  153.9774 N.ar    1  UNL1       -0.2393
@<TRIPOS>BOND
     1    20    21    1
     2    21    19    1
     3    19    13    1
     4    13    14   ar
     5    14    15   ar
     6    15    16   ar
     7    16     1    1
     8     1     2   ar
     9     2     3   ar
    10     3     4   ar
    11    22     4    1
    12    22    23    1
    13    23    24    1
    14    24    26    1
    15    26    27   am
    16    27    28    2
    17    27    30    1
    18    30    31   ar
    19    31    32   ar
    20    32    33   ar
    21    33    34   ar
    22    34    35   ar
    23    24    25    1
    24     4     5   ar
    25     5     6    1
    26     6     7   ar
    27     7     8   ar
    28     8     9   ar
    29     9    10   ar
    30    10    11   ar
    31    11    12    1
    32    16    17   ar
    33    17    18   ar
    34    18    13   ar
    35     5     1   ar
    36    11     6   ar
    37    25    22    1
    38    35    30   ar
    39    26    29    1
@<TRIPOS>MOLECULE
*****
 35 39 0 0 0
SMALL
GASTEIGER

@<TRIPOS>ATOM
      1 C         140.1819  141.4475  163.0080 C.ar    1  UNL1        0.1879
      2 N         139.0871  141.7788  162.0376 N.ar    1  UNL1       -0.1271
      3 N         139.7231  142.1608  160.7339 N.ar    1  UNL1       -0.1330
      4 C         141.2110  142.0657  160.8986 C.ar    1  UNL1        0.1468
      5 N         141.4945  141.6249  162.3041 N.ar    1  UNL1       -0.2739
      6 C         142.8523  141.4007  162.9008 C.ar    1  UNL1        0.0939
      7 C         143.4414  140.0214  162.9278 C.ar    1  UNL1        0.0199
      8 C         144.7992  139.7973  163.5245 C.ar    1  UNL1        0.0016
      9 C         145.5680  140.9524  164.0943 C.ar    1  UNL1        0.0024
     10 C         144.9790  142.3316  164.0673 C.ar    1  UNL1        0.0311
     11 C         143.6212  142.5557  163.4706 C.ar    1  UNL1        0.1562
     12 F         143.0322  143.9351  163.4436 F       1  UNL1       -0.2026
     13 C         139.6260  140.1498  167.2808 C.ar    1  UNL1        0.1576
     14 C         140.1266  141.5303  166.9754 C.ar    1  UNL1        0.0402
     15 C         140.3119  141.9629  165.5511 C.ar    1  UNL1        0.0254
     16 C         139.9966  141.0149  164.4323 C.ar    1  UNL1        0.1176
     17 N         139.4959  139.6344  164.7377 N.ar    1  UNL1       -0.2376
     18 C         139.3106  139.2018  166.1620 C.ar    1  UNL1        0.1357
     19 O         139.4407  139.7172  168.7051 O.3     1  UNL1       -0.4739
     20 C         141.7227  139.5337  169.9332 C.3     1  UNL1        0.0512
     21 C         140.3882  140.1973  169.7641 C.3     1  UNL1        0.2056
     22 C         142.2355  142.3597  159.8432 C.3     1  UNL1        0.0624
     23 C         143.7106  142.6317  159.8434 C.3     1  UNL1        0.0272
     24 C         143.6843  142.7756  158.3505 C.3     1  UNL1        0.0728
     25 C         142.2091  142.5037  158.3504 C.3     1  UNL1        0.0272
     26 N         144.7087  143.0697  157.2951 N.am    1  UNL1       -0.3012
     27 C         145.4858  141.9485  156.6712 C.2     1  UNL1        0.2635
     28 O         145.2384  140.5334  157.1027 O.2     1  UNL1       -0.2685
     29 H         144.8711  143.9984  157.0119 H       1  UNL1        0.1497
     30 C         146.5102  142.2425  155.6157 C.ar    1  UNL1        0.1345
     31 C         147.9400  141.8403  155.8255 C.ar    1  UNL1        0.0238
     32 C         148.9645  142.1343  154.7699 C.ar    1  UNL1        0.0033
     33 C         148.5591  142.8305  153.5046 C.ar    1  UNL1        0.0207
     34 C         147.1294  143.2327  153.2948 C.ar    1  UNL1        0.0990
     35 N         146.1049  142.9387  154.3504 N.ar    1  UNL1       -0.2393
@<TRIPOS>BOND
     1    20    21    1
     2    21    19    1
     3    19    13    1
     4    13    14   ar
     5    14    15   ar
     6    15    16   ar
     7    16     1    1
     8     1     2   ar
     9     2     3   ar
    10     3     4   ar
    11    22     4    1
    12    22    23    1
    13    23    24    1
    14    24    26    1
    15    26    27   am
    16    27    28    2
    17    27    30    1
    18    30    31   ar
    19    31    32   ar
    20    32    33   ar
    21    33    34   ar
    22    34    35   ar
    23    24    25    1
    24     4     5   ar
    25     5     6    1
    26     6     7   ar
    27     7     8   ar
    28     8     9   ar
    29     9    10   ar
    30    10    11   ar
    31    11    12    1
    32    16    17   ar
    33    17    18   ar
    34    18    13   ar
    35     5     1   ar
    36    11     6   ar
    37    25    22    1
    38    35    30   ar
    39    26    29    1
@<TRIPOS>MOLECULE
*****
 35 39 0 0 0
SMALL
GASTEIGER

@<TRIPOS>ATOM
      1 C         142.8133  141.4636  163.9310 C.ar    1  UNL1        0.1879
      2 N         144.0157  142.1269  163.3275 N.ar    1  UNL1       -0.1271
      3 N         144.2936  141.4707  162.0076 N.ar    1  UNL1       -0.1330
      4 C         143.2628  140.4018  161.7953 C.ar    1  UNL1        0.1468
      5 N         142.3480  140.3975  162.9840 N.ar    1  UNL1       -0.2739
      6 C         141.1739  139.4868  163.1896 C.ar    1  UNL1        0.0939
      7 C         139.8942  139.7335  162.4467 C.ar    1  UNL1        0.0199
      8 C         138.7201  138.8229  162.6522 C.ar    1  UNL1        0.0016
      9 C         138.8256  137.6656  163.6007 C.ar    1  UNL1        0.0024
     10 C         140.1052  137.4189  164.3435 C.ar    1  UNL1        0.0311
     11 C         141.2793  138.3296  164.1379 C.ar    1  UNL1        0.1562
     12 F         142.5589  138.0828  164.8808 F       1  UNL1       -0.2026
     13 C         140.9322  142.4917  167.8876 C.ar    1  UNL1        0.1576
     14 C         140.2899  142.9471  166.6109 C.ar    1  UNL1        0.0402
     15 C         140.9170  142.6045  165.2920 C.ar    1  UNL1        0.0254
     16 C         142.1862  141.8063  165.2499 C.ar    1  UNL1        0.1176
     17 N         142.8285  141.3508  166.5266 N.ar    1  UNL1       -0.2376
     18 C         142.2014  141.6935  167.8454 C.ar    1  UNL1        0.1357
     19 O         140.3051  142.8343  169.2064 O.3     1  UNL1       -0.4739
     20 C         139.1291  140.6165  169.8757 C.3     1  UNL1        0.0512
     21 C         140.0438  141.7557  170.2155 C.3     1  UNL1        0.2056
     22 C         143.1642  139.4963  160.6035 C.3     1  UNL1        0.0624
     23 C         142.9702  138.0224  160.4046 C.3     1  UNL1        0.0272
     24 C         143.0247  138.2158  158.9180 C.3     1  UNL1        0.0728
     25 C         143.2188  139.6899  159.1171 C.3     1  UNL1        0.0272
     26 N         142.9261  137.3104  157.7262 N.am    1  UNL1       -0.3012
     27 C         141.6082  137.1209  157.0354 C.2     1  UNL1        0.2635
     28 O         140.3890  137.8367  157.5364 O.2     1  UNL1       -0.2685
     29 H         143.7264  136.8405  157.3974 H       1  UNL1        0.1497
     30 C         141.5096  136.2154  155.8436 C.ar    1  UNL1        0.1345
     31 C         142.2154  134.8919  155.8466 C.ar    1  UNL1        0.0238
     32 C         142.1167  133.9865  154.6547 C.ar    1  UNL1        0.0033
     33 C         141.3122  134.4046  153.4598 C.ar    1  UNL1        0.0207
     34 C         140.6063  135.7281  153.4567 C.ar    1  UNL1        0.0990
     35 N         140.7050  136.6336  154.6487 N.ar    1  UNL1       -0.2393
@<TRIPOS>BOND
     1    20    21    1
     2    21    19    1
     3    19    13    1
     4    13    14   ar
     5    14    15   ar
     6    15    16   ar
     7    16     1    1
     8     1     2   ar
     9     2     3   ar
    10     3     4   ar
    11    22     4    1
    12    22    23    1
    13    23    24    1
    14    24    26    1
    15    26    27   am
    16    27    28    2
    17    27    30    1
    18    30    31   ar
    19    31    32   ar
    20    32    33   ar
    21    33    34   ar
    22    34    35   ar
    23    24    25    1
    24     4     5   ar
    25     5     6    1
    26     6     7   ar
    27     7     8   ar
    28     8     9   ar
    29     9    10   ar
    30    10    11   ar
    31    11    12    1
    32    16    17   ar
    33    17    18   ar
    34    18    13   ar
    35     5     1   ar
    36    11     6   ar
    37    25    22    1
    38    35    30   ar
    39    26    29    1
@<TRIPOS>MOLECULE
*****
 35 39 0 0 0
SMALL
GASTEIGER

@<TRIPOS>ATOM
      1 C         143.5952  141.0042  164.8990 C.ar    1  UNL1        0.1879
      2 N         144.8309  140.3678  164.3351 N.ar    1  UNL1       -0.1271
      3 N         144.8969  140.6986  162.8735 N.ar    1  UNL1       -0.1330
      4 C         143.7020  141.5394  162.5341 C.ar    1  UNL1        0.1468
      5 N         142.8975  141.7283  163.7859 N.ar    1  UNL1       -0.2739
      6 C         141.6197  142.5049  163.9039 C.ar    1  UNL1        0.0939
      7 C         140.3033  141.7857  163.9167 C.ar    1  UNL1        0.0199
      8 C         139.0255  142.5624  164.0347 C.ar    1  UNL1        0.0016
      9 C         139.0639  144.0582  164.1400 C.ar    1  UNL1        0.0024
     10 C         140.3802  144.7773  164.1272 C.ar    1  UNL1        0.0311
     11 C         141.6580  144.0007  164.0092 C.ar    1  UNL1        0.1562
     12 F         142.9743  144.7200  163.9964 F       1  UNL1       -0.2026
     13 C         142.2221  140.7803  169.1786 C.ar    1  UNL1        0.1576
     14 C         142.5054  142.1127  168.5505 C.ar    1  UNL1        0.0402
     15 C         142.9631  142.1873  167.1240 C.ar    1  UNL1        0.0254
     16 C         143.1375  140.9296  166.3255 C.ar    1  UNL1        0.1176
     17 N         142.8541  139.5972  166.9536 N.ar    1  UNL1       -0.2376
     18 C         142.3965  139.5226  168.3801 C.ar    1  UNL1        0.1357
     19 O         141.7644  140.7057  170.6051 O.3     1  UNL1       -0.4739
     20 C         139.2635  140.7299  169.9018 C.3     1  UNL1        0.0512
     21 C         140.3245  140.4241  170.9170 C.3     1  UNL1        0.2056
     22 C         143.3700  142.0941  161.1805 C.3     1  UNL1        0.0624
     23 C         142.1218  142.2022  160.3557 C.3     1  UNL1        0.0272
     24 C         142.9003  142.8784  159.2663 C.3     1  UNL1        0.0728
     25 C         144.1485  142.7703  160.0913 C.3     1  UNL1        0.0272
     26 N         142.5683  143.4331  157.9128 N.am    1  UNL1       -0.3012
     27 C         142.0074  144.8185  157.7870 C.2     1  UNL1        0.2635
     28 O         141.7784  145.6493  159.0148 O.2     1  UNL1       -0.2685
     29 H         142.7186  142.8878  157.1070 H       1  UNL1        0.1497
     30 C         141.6753  145.3732  156.4335 C.ar    1  UNL1        0.1345
     31 C         140.5889  146.3973  156.2885 C.ar    1  UNL1        0.0238
     32 C         140.2568  146.9520  154.9349 C.ar    1  UNL1        0.0033
     33 C         141.0113  146.4827  153.7264 C.ar    1  UNL1        0.0207
     34 C         142.0977  145.4586  153.8714 C.ar    1  UNL1        0.0990
     35 N         142.4297  144.9039  155.2250 N.ar    1  UNL1       -0.2393
@<TRIPOS>BOND
     1    20    21    1
     2    21    19    1
     3    19    13    1
     4    13    14   ar
     5    14    15   ar
     6    15    16   ar
     7    16     1    1
     8     1     2   ar
     9     2     3   ar
    10     3     4   ar
    11    22     4    1
    12    22    23    1
    13    23    24    1
    14    24    26    1
    15    26    27   am
    16    27    28    2
    17    27    30    1
    18    30    31   ar
    19    31    32   ar
    20    32    33   ar
    21    33    34   ar
    22    34    35   ar
    23    24    25    1
    24     4     5   ar
    25     5     6    1
    26     6     7   ar
    27     7     8   ar
    28     8     9   ar
    29     9    10   ar
    30    10    11   ar
    31    11    12    1
    32    16    17   ar
    33    17    18   ar
    34    18    13   ar
    35     5     1   ar
    36    11     6   ar
    37    25    22    1
    38    35    30   ar
    39    26    29    1
