@<TRIPOS>MOLECULE
*****
 37 40 0 0 0
SMALL
GASTEIGER

@<TRIPOS>ATOM
      1 N         143.9485  142.1415  161.0333 N.3     1  UNL1       -0.2689
      2 C         143.6206  142.4433  159.6011 C.3     1  UNL1        0.0741
      3 C         143.5195  141.3274  158.6037 C.3     1  UNL1        0.0369
      4 C         143.7463  139.9099  159.0386 C.3     1  UNL1        0.0747
      5 C         144.0742  139.6082  160.4709 C.3     1  UNL1        0.0369
      6 C         144.1753  140.7239  161.4682 C.3     1  UNL1        0.0741
      7 N         143.6452  138.7941  158.0412 N.am    1  UNL1       -0.2999
      8 C         142.4011  137.9587  157.9739 C.2     1  UNL1        0.2806
      9 O         141.2582  138.2391  158.9040 O.2     1  UNL1       -0.2668
     10 H         144.3953  138.6101  157.4308 H       1  UNL1        0.1498
     11 C         142.3001  136.8429  156.9765 C.ar    1  UNL1        0.2014
     12 C         141.3337  136.9438  155.8337 C.ar    1  UNL1        0.0843
     13 C         141.2326  135.8280  154.8363 C.ar    1  UNL1        0.2018
     14 O         140.2662  135.9289  153.6935 O.2     1  UNL1       -0.2864
     15 C         142.0979  134.6114  154.9816 C.ar    1  UNL1        0.0737
     16 C         141.9968  133.4956  153.9842 C.ar    1  UNL1        0.0085
     17 C         142.8621  132.2791  154.1296 C.ar    1  UNL1        0.0299
     18 C         143.8285  132.1782  155.2724 C.ar    1  UNL1        0.1432
     19 F         144.6938  130.9616  155.4177 F       1  UNL1       -0.2041
     20 C         143.9296  133.2939  156.2698 C.ar    1  UNL1        0.0672
     21 C         143.0643  134.5105  156.1244 C.ar    1  UNL1        0.1508
     22 O         143.1654  135.6263  157.1218 O.2     1  UNL1       -0.4486
     23 C         144.0496  143.2573  162.0307 C.3     1  UNL1        0.0992
     24 C         140.3890  144.6124  164.2697 C.ar    1  UNL1        0.1658
     25 C         141.2809  143.5596  164.8579 C.ar    1  UNL1        0.0390
     26 C         142.5011  143.1079  164.1115 C.ar    1  UNL1        0.0003
     27 C         142.8294  143.7090  162.7770 C.ar    1  UNL1       -0.0037
     28 C         141.9374  144.7618  162.1889 C.ar    1  UNL1        0.0299
     29 C         140.7172  145.2135  162.9352 C.ar    1  UNL1        0.1735
     30 F         139.8252  146.2664  162.3470 F       1  UNL1       -0.2010
     31 O         139.1687  145.0641  165.0161 O.3     1  UNL1       -0.4731
     32 C         137.8593  144.3631  164.8068 C.3     1  UNL1        0.2070
     33 C         137.5648  143.7004  163.4938 C.3     1  UNL1        0.0646
     34 C         137.5386  142.2036  163.3983 C.3     1  UNL1        0.0760
     35 C         139.2290  140.4160  164.2328 C.3     1  UNL1        0.0897
     36 N         138.8177  141.4411  163.2181 N.3     1  UNL1       -0.2702
     37 C         139.6855  141.7039  162.0231 C.3     1  UNL1        0.0897
@<TRIPOS>BOND
     1    35    36    1
     2    36    37    1
     3    36    34    1
     4    34    33    1
     5    33    32    1
     6    32    31    1
     7    31    24    1
     8    24    25   ar
     9    25    26   ar
    10    26    27   ar
    11    27    23    1
    12    23     1    1
    13     1     2    1
    14     2     3    1
    15     3     4    1
    16     4     7    1
    17     7     8   am
    18     8     9    2
    19     8    11    1
    20    11    12   ar
    21    12    13   ar
    22    13    14    2
    23    13    15   ar
    24    15    16   ar
    25    16    17   ar
    26    17    18   ar
    27    18    19    1
    28    18    20   ar
    29    20    21   ar
    30    21    22   ar
    31     4     5    1
    32     5     6    1
    33    27    28   ar
    34    28    29   ar
    35    29    30    1
    36    29    24   ar
    37     6     1    1
    38    22    11   ar
    39    21    15   ar
    40     7    10    1
@<TRIPOS>MOLECULE
*****
 37 40 0 0 0
SMALL
GASTEIGER

@<TRIPOS>ATOM
      1 N         141.8254  138.1927  158.2738 N.3     1  UNL1       -0.2689
      2 C         140.3904  138.3317  158.6878 C.3     1  UNL1        0.0741
      3 C         140.0512  138.7877  160.0760 C.3     1  UNL1        0.0369
      4 C         141.1469  139.1046  161.0501 C.3     1  UNL1        0.0747
      5 C         142.5819  138.9656  160.6361 C.3     1  UNL1        0.0369
      6 C         142.9212  138.5096  159.2479 C.3     1  UNL1        0.0741
      7 N         140.8076  139.5606  162.4382 N.am    1  UNL1       -0.2999
      8 C         140.4610  138.5538  163.4947 C.2     1  UNL1        0.2806
      9 O         140.4537  137.0909  163.1630 O.2     1  UNL1       -0.2668
     10 H         140.8124  140.5207  162.6559 H       1  UNL1        0.1498
     11 C         140.1217  139.0098  164.8829 C.ar    1  UNL1        0.2014
     12 C         138.9046  138.4695  165.5733 C.ar    1  UNL1        0.0843
     13 C         138.5653  138.9255  166.9614 C.ar    1  UNL1        0.2018
     14 O         137.3482  138.3852  167.6518 O.2     1  UNL1       -0.2864
     15 C         139.4431  139.9218  167.6592 C.ar    1  UNL1        0.0737
     16 C         139.1038  140.3778  169.0473 C.ar    1  UNL1        0.0085
     17 C         139.9816  141.3741  169.7449 C.ar    1  UNL1        0.0299
     18 C         141.1987  141.9144  169.0545 C.ar    1  UNL1        0.1432
     19 F         142.0765  142.9108  169.7523 F       1  UNL1       -0.2041
     20 C         141.5380  141.4585  167.6664 C.ar    1  UNL1        0.0672
     21 C         140.6602  140.4622  166.9687 C.ar    1  UNL1        0.1508
     22 O         140.9995  140.0061  165.5805 O.2     1  UNL1       -0.4486
     23 C         142.1647  137.7367  156.8856 C.3     1  UNL1        0.0992
     24 C         142.4653  133.3407  155.9717 C.ar    1  UNL1        0.1658
     25 C         141.4226  134.1784  155.2928 C.ar    1  UNL1        0.0390
     26 C         141.3224  135.6437  155.5974 C.ar    1  UNL1        0.0003
     27 C         142.2649  136.2714  156.5810 C.ar    1  UNL1       -0.0037
     28 C         143.3076  135.4338  157.2600 C.ar    1  UNL1        0.0299
     29 C         143.4078  133.9685  156.9554 C.ar    1  UNL1        0.1735
     30 F         144.4506  133.1308  157.6344 F       1  UNL1       -0.2010
     31 O         142.5655  131.8754  155.6671 O.3     1  UNL1       -0.4731
     32 C         143.6314  131.3736  154.7387 C.3     1  UNL1        0.2070
     33 C         144.7404  130.5121  155.2659 C.3     1  UNL1        0.0646
     34 C         144.4355  129.1502  155.8158 C.3     1  UNL1        0.0760
     35 C         144.4374  129.8395  158.3208 C.3     1  UNL1        0.0897
     36 N         143.8820  129.0081  157.2027 N.3     1  UNL1       -0.2702
     37 C         142.7729  128.0345  157.4714 C.3     1  UNL1        0.0897
@<TRIPOS>BOND
     1    35    36    1
     2    36    37    1
     3    36    34    1
     4    34    33    1
     5    33    32    1
     6    32    31    1
     7    31    24    1
     8    24    25   ar
     9    25    26   ar
    10    26    27   ar
    11    27    23    1
    12    23     1    1
    13     1     2    1
    14     2     3    1
    15     3     4    1
    16     4     7    1
    17     7     8   am
    18     8     9    2
    19     8    11    1
    20    11    12   ar
    21    12    13   ar
    22    13    14    2
    23    13    15   ar
    24    15    16   ar
    25    16    17   ar
    26    17    18   ar
    27    18    19    1
    28    18    20   ar
    29    20    21   ar
    30    21    22   ar
    31     4     5    1
    32     5     6    1
    33    27    28   ar
    34    28    29   ar
    35    29    30    1
    36    29    24   ar
    37     6     1    1
    38    22    11   ar
    39    21    15   ar
    40     7    10    1
@<TRIPOS>MOLECULE
*****
 37 40 0 0 0
SMALL
GASTEIGER

@<TRIPOS>ATOM
      1 N         141.4453  138.2311  157.4429 N.3     1  UNL1       -0.2689
      2 C         142.5366  138.5079  158.4340 C.3     1  UNL1        0.0741
      3 C         142.1912  138.9063  159.8383 C.3     1  UNL1        0.0369
      4 C         140.7543  139.0279  160.2515 C.3     1  UNL1        0.0747
      5 C         139.6630  138.7511  159.2604 C.3     1  UNL1        0.0369
      6 C         140.0084  138.3527  157.8562 C.3     1  UNL1        0.0741
      7 N         140.4089  139.4262  161.6557 N.am    1  UNL1       -0.2999
      8 C         140.5877  138.4477  162.7785 C.2     1  UNL1        0.2806
      9 O         141.1119  137.0708  162.4970 O.2     1  UNL1       -0.2668
     10 H         140.0649  140.3300  161.8405 H       1  UNL1        0.1498
     11 C         140.2423  138.8462  164.1828 C.ar    1  UNL1        0.2014
     12 C         138.9565  138.3811  164.7995 C.ar    1  UNL1        0.0843
     13 C         138.6110  138.7795  166.2037 C.ar    1  UNL1        0.2018
     14 O         137.3252  138.3144  166.8205 O.2     1  UNL1       -0.2864
     15 C         139.5513  139.6430  166.9913 C.ar    1  UNL1        0.0737
     16 C         139.2059  140.0414  168.3955 C.ar    1  UNL1        0.0085
     17 C         140.1462  140.9048  169.1830 C.ar    1  UNL1        0.0299
     18 C         141.4320  141.3699  168.5662 C.ar    1  UNL1        0.1432
     19 F         142.3724  142.2334  169.3538 F       1  UNL1       -0.2041
     20 C         141.7775  140.9715  167.1620 C.ar    1  UNL1        0.0672
     21 C         140.8372  140.1081  166.3745 C.ar    1  UNL1        0.1508
     22 O         141.1826  139.7096  164.9702 O.2     1  UNL1       -0.4486
     23 C         141.7907  137.8327  156.0387 C.3     1  UNL1        0.0992
     24 C         141.8363  133.4847  154.8800 C.ar    1  UNL1        0.1658
     25 C         142.4882  133.9277  156.1562 C.ar    1  UNL1        0.0390
     26 C         142.4730  135.3770  156.5424 C.ar    1  UNL1        0.0003
     27 C         141.8059  136.3834  155.6525 C.ar    1  UNL1       -0.0037
     28 C         141.1539  135.9404  154.3763 C.ar    1  UNL1        0.0299
     29 C         141.1691  134.4911  153.9901 C.ar    1  UNL1        0.1735
     30 F         140.5171  134.0481  152.7138 F       1  UNL1       -0.2010
     31 O         141.8515  132.0353  154.4938 O.3     1  UNL1       -0.4731
     32 C         143.1369  131.3833  154.0785 C.3     1  UNL1        0.2070
     33 C         143.8959  130.5332  155.0539 C.3     1  UNL1        0.0646
     34 C         144.9875  131.1388  155.8856 C.3     1  UNL1        0.0760
     35 C         144.2526  130.0316  158.1181 C.3     1  UNL1        0.0897
     36 N         144.8517  131.1909  157.3785 N.3     1  UNL1       -0.2702
     37 C         145.3149  132.4025  158.1320 C.3     1  UNL1        0.0897
@<TRIPOS>BOND
     1    35    36    1
     2    36    37    1
     3    36    34    1
     4    34    33    1
     5    33    32    1
     6    32    31    1
     7    31    24    1
     8    24    25   ar
     9    25    26   ar
    10    26    27   ar
    11    27    23    1
    12    23     1    1
    13     1     2    1
    14     2     3    1
    15     3     4    1
    16     4     7    1
    17     7     8   am
    18     8     9    2
    19     8    11    1
    20    11    12   ar
    21    12    13   ar
    22    13    14    2
    23    13    15   ar
    24    15    16   ar
    25    16    17   ar
    26    17    18   ar
    27    18    19    1
    28    18    20   ar
    29    20    21   ar
    30    21    22   ar
    31     4     5    1
    32     5     6    1
    33    27    28   ar
    34    28    29   ar
    35    29    30    1
    36    29    24   ar
    37     6     1    1
    38    22    11   ar
    39    21    15   ar
    40     7    10    1
@<TRIPOS>MOLECULE
*****
 37 40 0 0 0
SMALL
GASTEIGER

@<TRIPOS>ATOM
      1 N         141.2021  138.6066  158.1115 N.3     1  UNL1       -0.2689
      2 C         142.2700  139.2261  158.9635 C.3     1  UNL1        0.0741
      3 C         141.9689  139.6104  160.3819 C.3     1  UNL1        0.0369
      4 C         140.6000  139.3754  160.9481 C.3     1  UNL1        0.0747
      5 C         139.5321  138.7560  160.0961 C.3     1  UNL1        0.0369
      6 C         139.8331  138.3716  158.6778 C.3     1  UNL1        0.0741
      7 N         140.2989  139.7597  162.3664 N.am    1  UNL1       -0.2999
      8 C         140.1336  138.6974  163.4124 C.2     1  UNL1        0.2806
      9 O         140.2694  137.2507  163.0402 O.2     1  UNL1       -0.2668
     10 H         140.2098  140.7093  162.6108 H       1  UNL1        0.1498
     11 C         139.8325  139.0819  164.8308 C.ar    1  UNL1        0.2014
     12 C         138.6917  138.4336  165.5575 C.ar    1  UNL1        0.0843
     13 C         138.3906  138.8180  166.9758 C.ar    1  UNL1        0.2018
     14 O         137.2497  138.1697  167.7025 O.2     1  UNL1       -0.2864
     15 C         139.2304  139.8507  167.6674 C.ar    1  UNL1        0.0737
     16 C         138.9293  140.2351  169.0857 C.ar    1  UNL1        0.0085
     17 C         139.7691  141.2677  169.7772 C.ar    1  UNL1        0.0299
     18 C         140.9100  141.9160  169.0505 C.ar    1  UNL1        0.1432
     19 F         141.7498  142.9487  169.7422 F       1  UNL1       -0.2041
     20 C         141.2111  141.5316  167.6323 C.ar    1  UNL1        0.0672
     21 C         140.3713  140.4990  166.9407 C.ar    1  UNL1        0.1508
     22 O         140.6723  140.1145  165.5224 O.2     1  UNL1       -0.4486
     23 C         141.5032  138.2223  156.6932 C.3     1  UNL1        0.0992
     24 C         142.3980  133.9335  155.6658 C.ar    1  UNL1        0.1658
     25 C         141.2324  134.6299  155.0284 C.ar    1  UNL1        0.0390
     26 C         140.9341  136.0595  155.3709 C.ar    1  UNL1        0.0003
     27 C         141.8015  136.7927  156.3507 C.ar    1  UNL1       -0.0037
     28 C         142.9670  136.0962  156.9881 C.ar    1  UNL1        0.0299
     29 C         143.2653  134.6666  156.6457 C.ar    1  UNL1        0.1735
     30 F         144.4310  133.9702  157.2831 F       1  UNL1       -0.2010
     31 O         142.6963  132.5039  155.3233 O.3     1  UNL1       -0.4731
     32 C         142.6624  131.4535  156.3936 C.3     1  UNL1        0.2070
     33 C         143.8908  130.6456  156.6908 C.3     1  UNL1        0.0646
     34 C         144.8243  130.2639  155.5802 C.3     1  UNL1        0.0760
     35 C         144.8326  129.3291  153.1562 C.3     1  UNL1        0.0897
     36 N         144.4242  129.2067  154.5943 N.3     1  UNL1       -0.2702
     37 C         143.6156  128.0269  155.0465 C.3     1  UNL1        0.0897
@<TRIPOS>BOND
     1    35    36    1
     2    36    37    1
     3    36    34    1
     4    34    33    1
     5    33    32    1
     6    32    31    1
     7    31    24    1
     8    24    25   ar
     9    25    26   ar
    10    26    27   ar
    11    27    23    1
    12    23     1    1
    13     1     2    1
    14     2     3    1
    15     3     4    1
    16     4     7    1
    17     7     8   am
    18     8     9    2
    19     8    11    1
    20    11    12   ar
    21    12    13   ar
    22    13    14    2
    23    13    15   ar
    24    15    16   ar
    25    16    17   ar
    26    17    18   ar
    27    18    19    1
    28    18    20   ar
    29    20    21   ar
    30    21    22   ar
    31     4     5    1
    32     5     6    1
    33    27    28   ar
    34    28    29   ar
    35    29    30    1
    36    29    24   ar
    37     6     1    1
    38    22    11   ar
    39    21    15   ar
    40     7    10    1
@<TRIPOS>MOLECULE
*****
 37 40 0 0 0
SMALL
GASTEIGER

@<TRIPOS>ATOM
      1 N         142.3489  138.7244  158.2526 N.3     1  UNL1       -0.2689
      2 C         141.0935  138.3668  158.9915 C.3     1  UNL1        0.0741
      3 C         140.8544  138.9082  160.3699 C.3     1  UNL1        0.0369
      4 C         141.8707  139.8073  161.0092 C.3     1  UNL1        0.0747
      5 C         143.1262  140.1648  160.2703 C.3     1  UNL1        0.0369
      6 C         143.3653  139.6234  158.8920 C.3     1  UNL1        0.0741
      7 N         141.6316  140.3487  162.3875 N.am    1  UNL1       -0.2999
      8 C         142.3036  139.7148  163.5693 C.2     1  UNL1        0.2806
      9 O         143.2148  138.5396  163.3728 O.2     1  UNL1       -0.2668
     10 H         141.0336  141.1200  162.5164 H       1  UNL1        0.1498
     11 C         142.0645  140.2563  164.9476 C.ar    1  UNL1        0.2014
     12 C         143.0161  141.2551  165.5366 C.ar    1  UNL1        0.0843
     13 C         142.7770  141.7966  166.9148 C.ar    1  UNL1        0.2018
     14 O         143.7287  142.7953  167.5038 O.2     1  UNL1       -0.2864
     15 C         141.5862  141.3393  167.7042 C.ar    1  UNL1        0.0737
     16 C         141.3472  141.8808  169.0824 C.ar    1  UNL1        0.0085
     17 C         140.1564  141.4235  169.8717 C.ar    1  UNL1        0.0299
     18 C         139.2048  140.4247  169.2827 C.ar    1  UNL1        0.1432
     19 F         138.0140  139.9674  170.0721 F       1  UNL1       -0.2041
     20 C         139.4439  139.8832  167.9045 C.ar    1  UNL1        0.0672
     21 C         140.6346  140.3405  167.1152 C.ar    1  UNL1        0.1508
     22 O         140.8738  139.7990  165.7369 O.2     1  UNL1       -0.4486
     23 C         142.5880  138.1829  156.8744 C.3     1  UNL1        0.0992
     24 C         142.2377  133.7638  156.1008 C.ar    1  UNL1        0.1658
     25 C         141.3882  134.7299  155.3295 C.ar    1  UNL1        0.0390
     26 C         141.5049  136.2029  155.5874 C.ar    1  UNL1        0.0003
     27 C         142.4713  136.7099  156.6165 C.ar    1  UNL1       -0.0037
     28 C         143.3208  135.7438  157.3878 C.ar    1  UNL1        0.0299
     29 C         143.2040  134.2708  157.1299 C.ar    1  UNL1        0.1735
     30 F         144.0536  133.3047  157.9013 F       1  UNL1       -0.2010
     31 O         142.1209  132.2907  155.8429 O.3     1  UNL1       -0.4731
     32 C         143.2146  131.5679  155.1140 C.3     1  UNL1        0.2070
     33 C         143.6481  130.2066  155.5710 C.3     1  UNL1        0.0646
     34 C         142.9637  129.5530  156.7349 C.3     1  UNL1        0.0760
     35 C         144.9249  130.2328  158.2975 C.3     1  UNL1        0.0897
     36 N         143.6611  129.4607  158.0597 N.3     1  UNL1       -0.2702
     37 C         143.0946  128.5961  159.1468 C.3     1  UNL1        0.0897
@<TRIPOS>BOND
     1    35    36    1
     2    36    37    1
     3    36    34    1
     4    34    33    1
     5    33    32    1
     6    32    31    1
     7    31    24    1
     8    24    25   ar
     9    25    26   ar
    10    26    27   ar
    11    27    23    1
    12    23     1    1
    13     1     2    1
    14     2     3    1
    15     3     4    1
    16     4     7    1
    17     7     8   am
    18     8     9    2
    19     8    11    1
    20    11    12   ar
    21    12    13   ar
    22    13    14    2
    23    13    15   ar
    24    15    16   ar
    25    16    17   ar
    26    17    18   ar
    27    18    19    1
    28    18    20   ar
    29    20    21   ar
    30    21    22   ar
    31     4     5    1
    32     5     6    1
    33    27    28   ar
    34    28    29   ar
    35    29    30    1
    36    29    24   ar
    37     6     1    1
    38    22    11   ar
    39    21    15   ar
    40     7    10    1
@<TRIPOS>MOLECULE
*****
 37 40 0 0 0
SMALL
GASTEIGER

@<TRIPOS>ATOM
      1 N         142.8049  142.3662  160.7669 N.3     1  UNL1       -0.2689
      2 C         143.9911  142.0176  159.9175 C.3     1  UNL1        0.0741
      3 C         143.8907  140.9153  158.9051 C.3     1  UNL1        0.0369
      4 C         142.6040  140.1618  158.7420 C.3     1  UNL1        0.0747
      5 C         141.4178  140.5104  159.5913 C.3     1  UNL1        0.0369
      6 C         141.5182  141.6125  160.6038 C.3     1  UNL1        0.0741
      7 N         142.5036  139.0596  157.7295 N.am    1  UNL1       -0.2999
      8 C         142.6731  137.6316  158.1561 C.2     1  UNL1        0.2806
      9 O         142.9430  137.3057  159.5952 O.2     1  UNL1       -0.2668
     10 H         142.3264  139.2735  156.7850 H       1  UNL1        0.1498
     11 C         142.5726  136.5294  157.1436 C.ar    1  UNL1        0.2014
     12 C         141.6197  136.6535  155.9919 C.ar    1  UNL1        0.0843
     13 C         141.5192  135.5514  154.9794 C.ar    1  UNL1        0.2018
     14 O         140.5663  135.6756  153.8276 O.2     1  UNL1       -0.2864
     15 C         142.3717  134.3250  155.1186 C.ar    1  UNL1        0.0737
     16 C         142.2712  133.2229  154.1061 C.ar    1  UNL1        0.0085
     17 C         143.1237  131.9966  154.2453 C.ar    1  UNL1        0.0299
     18 C         144.0766  131.8724  155.3970 C.ar    1  UNL1        0.1432
     19 F         144.9291  130.6460  155.5362 F       1  UNL1       -0.2041
     20 C         144.1771  132.9745  156.4095 C.ar    1  UNL1        0.0672
     21 C         143.3246  134.2009  156.2703 C.ar    1  UNL1        0.1508
     22 O         143.4251  135.3031  157.2828 O.2     1  UNL1       -0.4486
     23 C         142.9054  143.4683  161.7793 C.3     1  UNL1        0.0992
     24 C         141.7023  142.7172  166.0500 C.ar    1  UNL1        0.1658
     25 C         143.0099  142.1922  165.5357 C.ar    1  UNL1        0.0390
     26 C         143.4109  142.4426  164.1122 C.ar    1  UNL1        0.0003
     27 C         142.5044  143.2179  163.2029 C.ar    1  UNL1       -0.0037
     28 C         141.1967  143.7429  163.7171 C.ar    1  UNL1        0.0299
     29 C         140.7957  143.4925  165.1407 C.ar    1  UNL1        0.1735
     30 F         139.4880  144.0175  165.6549 F       1  UNL1       -0.2010
     31 O         141.3013  142.4668  167.4735 O.3     1  UNL1       -0.4731
     32 C         140.2935  141.4026  167.7927 C.3     1  UNL1        0.2070
     33 C         140.5132  139.9958  167.3208 C.3     1  UNL1        0.0646
     34 C         139.6041  139.4012  166.2863 C.3     1  UNL1        0.0760
     35 C         140.4069  139.9689  163.8814 C.3     1  UNL1        0.0897
     36 N         139.3936  140.1058  164.9789 N.3     1  UNL1       -0.2702
     37 C         138.1697  140.9473  164.7690 C.3     1  UNL1        0.0897
@<TRIPOS>BOND
     1    35    36    1
     2    36    37    1
     3    36    34    1
     4    34    33    1
     5    33    32    1
     6    32    31    1
     7    31    24    1
     8    24    25   ar
     9    25    26   ar
    10    26    27   ar
    11    27    23    1
    12    23     1    1
    13     1     2    1
    14     2     3    1
    15     3     4    1
    16     4     7    1
    17     7     8   am
    18     8     9    2
    19     8    11    1
    20    11    12   ar
    21    12    13   ar
    22    13    14    2
    23    13    15   ar
    24    15    16   ar
    25    16    17   ar
    26    17    18   ar
    27    18    19    1
    28    18    20   ar
    29    20    21   ar
    30    21    22   ar
    31     4     5    1
    32     5     6    1
    33    27    28   ar
    34    28    29   ar
    35    29    30    1
    36    29    24   ar
    37     6     1    1
    38    22    11   ar
    39    21    15   ar
    40     7    10    1
@<TRIPOS>MOLECULE
*****
 37 40 0 0 0
SMALL
GASTEIGER

@<TRIPOS>ATOM
      1 N         142.7658  141.2732  157.5240 N.3     1  UNL1       -0.2689
      2 C         143.2594  140.4164  158.6519 C.3     1  UNL1        0.0741
      3 C         143.1010  138.9262  158.5867 C.3     1  UNL1        0.0369
      4 C         142.4490  138.2928  157.3936 C.3     1  UNL1        0.0747
      5 C         141.9554  139.1496  156.2656 C.3     1  UNL1        0.0369
      6 C         142.1138  140.6397  156.3308 C.3     1  UNL1        0.0741
      7 N         142.2906  136.8027  157.3284 N.am    1  UNL1       -0.2999
      8 C         143.2674  135.9782  156.5435 C.2     1  UNL1        0.2806
      9 O         144.4027  136.6439  155.8238 O.2     1  UNL1       -0.2668
     10 H         141.5455  136.3657  157.8008 H       1  UNL1        0.1498
     11 C         143.1090  134.4880  156.4783 C.ar    1  UNL1        0.2014
     12 C         142.0215  133.8854  155.6391 C.ar    1  UNL1        0.0843
     13 C         141.8630  132.3952  155.5739 C.ar    1  UNL1        0.2018
     14 O         140.7755  131.7926  154.7347 O.2     1  UNL1       -0.2864
     15 C         142.7921  131.5076  156.3480 C.ar    1  UNL1        0.0737
     16 C         142.6336  130.0174  156.2828 C.ar    1  UNL1        0.0085
     17 C         143.5626  129.1299  157.0568 C.ar    1  UNL1        0.0299
     18 C         144.6501  129.7325  157.8960 C.ar    1  UNL1        0.1432
     19 F         145.5791  128.8448  158.6701 F       1  UNL1       -0.2041
     20 C         144.8085  131.2226  157.9612 C.ar    1  UNL1        0.0672
     21 C         143.8795  132.1102  157.1872 C.ar    1  UNL1        0.1508
     22 O         144.0380  133.6004  157.2523 O.2     1  UNL1       -0.4486
     23 C         142.9242  142.7634  157.5892 C.3     1  UNL1        0.0992
     24 C         140.8205  145.1114  160.8002 C.ar    1  UNL1        0.1658
     25 C         140.2721  145.0918  159.4042 C.ar    1  UNL1        0.0390
     26 C         140.9734  144.3091  158.3339 C.ar    1  UNL1        0.0003
     27 C         142.2230  143.5460  158.6595 C.ar    1  UNL1       -0.0037
     28 C         142.7713  143.5656  160.0555 C.ar    1  UNL1        0.0299
     29 C         142.0701  144.3483  161.1259 C.ar    1  UNL1        0.1735
     30 F         142.6185  144.3679  162.5219 F       1  UNL1       -0.2010
     31 O         140.1192  145.8941  161.8706 O.3     1  UNL1       -0.4731
     32 C         138.9647  145.2857  162.6101 C.3     1  UNL1        0.2070
     33 C         138.9536  143.8148  162.9039 C.3     1  UNL1        0.0646
     34 C         137.7791  142.9768  162.4934 C.3     1  UNL1        0.0760
     35 C         137.7181  140.6045  161.4359 C.3     1  UNL1        0.0897
     36 N         137.8325  141.4854  162.6446 N.3     1  UNL1       -0.2702
     37 C         138.0003  140.8750  164.0045 C.3     1  UNL1        0.0897
@<TRIPOS>BOND
     1    35    36    1
     2    36    37    1
     3    36    34    1
     4    34    33    1
     5    33    32    1
     6    32    31    1
     7    31    24    1
     8    24    25   ar
     9    25    26   ar
    10    26    27   ar
    11    27    23    1
    12    23     1    1
    13     1     2    1
    14     2     3    1
    15     3     4    1
    16     4     7    1
    17     7     8   am
    18     8     9    2
    19     8    11    1
    20    11    12   ar
    21    12    13   ar
    22    13    14    2
    23    13    15   ar
    24    15    16   ar
    25    16    17   ar
    26    17    18   ar
    27    18    19    1
    28    18    20   ar
    29    20    21   ar
    30    21    22   ar
    31     4     5    1
    32     5     6    1
    33    27    28   ar
    34    28    29   ar
    35    29    30    1
    36    29    24   ar
    37     6     1    1
    38    22    11   ar
    39    21    15   ar
    40     7    10    1
@<TRIPOS>MOLECULE
*****
 37 40 0 0 0
SMALL
GASTEIGER

@<TRIPOS>ATOM
      1 N         142.8790  142.2616  160.6766 N.3     1  UNL1       -0.2689
      2 C         144.0468  141.9477  159.7890 C.3     1  UNL1        0.0741
      3 C         143.9444  140.8456  158.7766 C.3     1  UNL1        0.0369
      4 C         142.6743  140.0575  158.6516 C.3     1  UNL1        0.0747
      5 C         141.5065  140.3714  159.5391 C.3     1  UNL1        0.0369
      6 C         141.6088  141.4734  160.5516 C.3     1  UNL1        0.0741
      7 N         142.5720  138.9555  157.6392 N.am    1  UNL1       -0.2999
      8 C         142.7000  137.5251  158.0721 C.2     1  UNL1        0.2806
      9 O         142.9302  137.1966  159.5174 O.2     1  UNL1       -0.2668
     10 H         142.4208  139.1711  156.6905 H       1  UNL1        0.1498
     11 C         142.5976  136.4230  157.0595 C.ar    1  UNL1        0.2014
     12 C         141.6508  136.5524  155.9034 C.ar    1  UNL1        0.0843
     13 C         141.5484  135.4504  154.8909 C.ar    1  UNL1        0.2018
     14 O         140.6015  135.5797  153.7347 O.2     1  UNL1       -0.2864
     15 C         142.3930  134.2191  155.0345 C.ar    1  UNL1        0.0737
     16 C         142.2906  133.1171  154.0220 C.ar    1  UNL1        0.0085
     17 C         143.1352  131.8859  154.1656 C.ar    1  UNL1        0.0299
     18 C         144.0821  131.7565  155.3218 C.ar    1  UNL1        0.1432
     19 F         144.9267  130.5252  155.4654 F       1  UNL1       -0.2041
     20 C         144.1844  132.8585  156.3343 C.ar    1  UNL1        0.0672
     21 C         143.3399  134.0897  156.1906 C.ar    1  UNL1        0.1508
     22 O         143.4422  135.1918  157.2032 O.2     1  UNL1       -0.4486
     23 C         142.9813  143.3636  161.6890 C.3     1  UNL1        0.0992
     24 C         142.2381  142.4963  166.0416 C.ar    1  UNL1        0.1658
     25 C         143.5183  142.0545  165.3968 C.ar    1  UNL1        0.0390
     26 C         143.7660  142.3436  163.9459 C.ar    1  UNL1        0.0003
     27 C         142.7335  143.0745  163.1399 C.ar    1  UNL1       -0.0037
     28 C         141.4533  143.5163  163.7847 C.ar    1  UNL1        0.0299
     29 C         141.2056  143.2272  165.2356 C.ar    1  UNL1        0.1735
     30 F         139.9253  143.6690  165.8804 F       1  UNL1       -0.2010
     31 O         141.9904  142.2072  167.4925 O.3     1  UNL1       -0.4731
     32 C         142.8960  141.2707  168.2359 C.3     1  UNL1        0.2070
     33 C         142.4387  139.8773  168.5512 C.3     1  UNL1        0.0646
     34 C         141.6807  139.6050  169.8167 C.3     1  UNL1        0.0760
     35 C         140.9414  141.6204  171.2801 C.3     1  UNL1        0.0897
     36 N         140.6157  140.5578  170.2728 N.3     1  UNL1       -0.2702
     37 C         139.2250  140.4479  169.7215 C.3     1  UNL1        0.0897
@<TRIPOS>BOND
     1    35    36    1
     2    36    37    1
     3    36    34    1
     4    34    33    1
     5    33    32    1
     6    32    31    1
     7    31    24    1
     8    24    25   ar
     9    25    26   ar
    10    26    27   ar
    11    27    23    1
    12    23     1    1
    13     1     2    1
    14     2     3    1
    15     3     4    1
    16     4     7    1
    17     7     8   am
    18     8     9    2
    19     8    11    1
    20    11    12   ar
    21    12    13   ar
    22    13    14    2
    23    13    15   ar
    24    15    16   ar
    25    16    17   ar
    26    17    18   ar
    27    18    19    1
    28    18    20   ar
    29    20    21   ar
    30    21    22   ar
    31     4     5    1
    32     5     6    1
    33    27    28   ar
    34    28    29   ar
    35    29    30    1
    36    29    24   ar
    37     6     1    1
    38    22    11   ar
    39    21    15   ar
    40     7    10    1
@<TRIPOS>MOLECULE
*****
 37 40 0 0 0
SMALL
GASTEIGER

@<TRIPOS>ATOM
      1 N         142.6628  139.8893  158.6429 N.3     1  UNL1       -0.2689
      2 C         141.5084  140.7801  158.9948 C.3     1  UNL1        0.0741
      3 C         141.0764  140.9183  160.4247 C.3     1  UNL1        0.0369
      4 C         141.7987  140.1658  161.5025 C.3     1  UNL1        0.0747
      5 C         142.9531  139.2749  161.1506 C.3     1  UNL1        0.0369
      6 C         143.3851  139.1367  159.7209 C.3     1  UNL1        0.0741
      7 N         141.3667  140.3040  162.9322 N.am    1  UNL1       -0.2999
      8 C         140.3373  139.3713  163.4982 C.2     1  UNL1        0.2806
      9 O         139.7400  138.3003  162.6345 O.2     1  UNL1       -0.2668
     10 H         141.7587  141.0070  163.4991 H       1  UNL1        0.1498
     11 C         139.9053  139.5096  164.9280 C.ar    1  UNL1        0.2014
     12 C         138.7360  138.7204  165.4379 C.ar    1  UNL1        0.0843
     13 C         138.3040  138.8586  166.8676 C.ar    1  UNL1        0.2018
     14 O         137.1347  138.0694  167.3774 O.2     1  UNL1       -0.2864
     15 C         139.0412  139.7861  167.7876 C.ar    1  UNL1        0.0737
     16 C         138.6092  139.9244  169.2173 C.ar    1  UNL1        0.0085
     17 C         139.3464  140.8518  170.1372 C.ar    1  UNL1        0.0299
     18 C         140.5157  141.6410  169.6274 C.ar    1  UNL1        0.1432
     19 F         141.2530  142.5685  170.5474 F       1  UNL1       -0.2041
     20 C         140.9478  141.5027  168.1977 C.ar    1  UNL1        0.0672
     21 C         140.2105  140.5753  167.2778 C.ar    1  UNL1        0.1508
     22 O         140.6426  140.4370  165.8479 O.2     1  UNL1       -0.4486
     23 C         143.0948  139.7510  157.2132 C.3     1  UNL1        0.0992
     24 C         141.3879  136.4663  154.6545 C.ar    1  UNL1        0.1658
     25 C         141.0657  136.5209  156.1184 C.ar    1  UNL1        0.0390
     26 C         141.6347  137.6158  156.9713 C.ar    1  UNL1        0.0003
     27 C         142.5259  138.6561  156.3603 C.ar    1  UNL1       -0.0037
     28 C         142.8481  138.6016  154.8964 C.ar    1  UNL1        0.0299
     29 C         142.2791  137.5067  154.0434 C.ar    1  UNL1        0.1735
     30 F         142.6014  137.4522  152.5794 F       1  UNL1       -0.2010
     31 O         140.8190  135.3714  153.8015 O.3     1  UNL1       -0.4731
     32 C         141.7189  134.3052  153.2509 C.3     1  UNL1        0.2070
     33 C         141.8833  133.0087  153.9872 C.3     1  UNL1        0.0646
     34 C         141.4723  132.9060  155.4261 C.3     1  UNL1        0.0760
     35 C         143.1522  133.7228  157.2318 C.3     1  UNL1        0.0897
     36 N         142.4969  132.6031  156.4790 N.3     1  UNL1       -0.2702
     37 C         142.8661  131.1805  156.7790 C.3     1  UNL1        0.0897
@<TRIPOS>BOND
     1    35    36    1
     2    36    37    1
     3    36    34    1
     4    34    33    1
     5    33    32    1
     6    32    31    1
     7    31    24    1
     8    24    25   ar
     9    25    26   ar
    10    26    27   ar
    11    27    23    1
    12    23     1    1
    13     1     2    1
    14     2     3    1
    15     3     4    1
    16     4     7    1
    17     7     8   am
    18     8     9    2
    19     8    11    1
    20    11    12   ar
    21    12    13   ar
    22    13    14    2
    23    13    15   ar
    24    15    16   ar
    25    16    17   ar
    26    17    18   ar
    27    18    19    1
    28    18    20   ar
    29    20    21   ar
    30    21    22   ar
    31     4     5    1
    32     5     6    1
    33    27    28   ar
    34    28    29   ar
    35    29    30    1
    36    29    24   ar
    37     6     1    1
    38    22    11   ar
    39    21    15   ar
    40     7    10    1
