@<TRIPOS>MOLECULE
*****
 31 34 0 0 0
SMALL
GASTEIGER

@<TRIPOS>ATOM
      1 C         141.1772  144.2926  160.4661 C.2     1  UNL1        0.0003
      2 C         140.4626  144.1421  159.1559 C.2     1  UNL1        0.0314
      3 C         139.3532  143.1420  159.0173 C.3     1  UNL1        0.0327
      4 C         138.6386  142.9914  157.7070 C.3     1  UNL1        0.0263
      5 C         139.0334  143.8410  156.5355 C.3     1  UNL1        0.0943
      6 N         140.1427  144.8410  156.6742 N.am    1  UNL1       -0.2742
      7 C         140.8573  144.9916  157.9844 C.2     1  UNL1        0.2452
      8 O         141.9667  145.9917  158.1231 O.2     1  UNL1       -0.2702
      9 C         139.3605  143.0899  163.7832 C.ar    1  UNL1        0.1547
     10 C         139.7553  143.9393  162.6117 C.ar    1  UNL1        0.0384
     11 C         140.7824  143.4431  161.6377 C.ar    1  UNL1        0.0029
     12 C         141.4148  142.0973  161.8352 C.ar    1  UNL1        0.0017
     13 C         141.0200  141.2479  163.0067 C.ar    1  UNL1        0.0206
     14 C         139.9928  141.7441  163.9807 C.ar    1  UNL1        0.0994
     15 N         139.5980  140.8946  165.1523 N.ar    1  UNL1       -0.2839
     16 C         140.2366  140.9126  166.5094 C.ar    1  UNL1        0.1826
     17 N         139.5286  139.9070  167.3682 N.ar    1  UNL1       -0.2280
     18 C         138.4524  139.2675  166.5418 C.ar    1  UNL1        0.0786
     19 C         137.5005  138.2043  167.0039 C.3     1  UNL1        0.0538
     20 C         138.4953  139.8779  165.1723 C.ar    1  UNL1        0.0963
     21 C         138.5708  144.8592  165.5141 C.3     1  UNL1        0.2525
     22 O         138.3333  143.5861  164.7572 O.3     1  UNL1       -0.4700
     23 C         140.5375  145.6906  155.5026 C.3     1  UNL1        0.0982
     24 C         141.4782  145.1496  154.4670 C.3     1  UNL1        0.0264
     25 C         139.9916  147.0810  155.3667 C.ar    1  UNL1       -0.0041
     26 C         139.0828  147.6365  156.4228 C.ar    1  UNL1       -0.0004
     27 C         138.5368  149.0270  156.2869 C.ar    1  UNL1        0.0294
     28 C         138.8998  149.8621  155.0948 C.ar    1  UNL1        0.1401
     29 F         138.3539  151.2525  154.9589 F       1  UNL1       -0.2042
     30 C         139.8087  149.3065  154.0387 C.ar    1  UNL1        0.0294
     31 C         140.3546  147.9161  154.1746 C.ar    1  UNL1       -0.0004
@<TRIPOS>BOND
     1    21    22    1
     2    22     9    1
     3     9    10   ar
     4    10    11   ar
     5    11     1    1
     6     1     2    2
     7     2     3    1
     8     3     4    1
     9     4     5    1
    10     5     6    1
    11     6    23    1
    12    23    24    1
    13    23    25    1
    14    25    26   ar
    15    26    27   ar
    16    27    28   ar
    17    28    29    1
    18    28    30   ar
    19    30    31   ar
    20     6     7   am
    21     7     8    2
    22    11    12   ar
    23    12    13   ar
    24    13    14   ar
    25    14    15    1
    26    15    16   ar
    27    16    17   ar
    28    17    18   ar
    29    18    19    1
    30    18    20   ar
    31    14     9   ar
    32    20    15   ar
    33     7     2    1
    34    31    25   ar
@<TRIPOS>MOLECULE
*****
 31 34 0 0 0
SMALL
GASTEIGER

@<TRIPOS>ATOM
      1 C         140.7792  142.3048  160.9829 C.2     1  UNL1        0.0003
      2 C         139.7881  142.2620  162.1080 C.2     1  UNL1        0.0314
      3 C         138.6146  143.1963  162.1097 C.3     1  UNL1        0.0327
      4 C         137.6234  143.1535  163.2348 C.3     1  UNL1        0.0263
      5 C         137.8058  142.1763  164.3581 C.3     1  UNL1        0.0943
      6 N         138.9792  141.2420  164.3564 N.am    1  UNL1       -0.2742
      7 C         139.9704  141.2848  163.2313 C.2     1  UNL1        0.2452
      8 O         141.1439  140.3505  163.2296 O.2     1  UNL1       -0.2702
      9 C         139.5685  143.8924  157.5530 C.ar    1  UNL1        0.1547
     10 C         139.7509  142.9152  158.6764 C.ar    1  UNL1        0.0384
     11 C         140.5969  143.2820  159.8595 C.ar    1  UNL1        0.0029
     12 C         141.2605  144.6259  159.9193 C.ar    1  UNL1        0.0017
     13 C         141.0781  145.6030  158.7960 C.ar    1  UNL1        0.0206
     14 C         140.2321  145.2362  157.6129 C.ar    1  UNL1        0.0994
     15 N         140.0498  146.2134  156.4895 N.ar    1  UNL1       -0.2839
     16 C         139.0849  147.3617  156.4676 C.ar    1  UNL1        0.1826
     17 N         139.2391  148.0718  155.1554 N.ar    1  UNL1       -0.2280
     18 C         140.2994  147.3624  154.3662 C.ar    1  UNL1        0.0786
     19 C         140.7750  147.7360  152.9936 C.3     1  UNL1        0.0538
     20 C         140.8004  146.2139  155.1908 C.ar    1  UNL1        0.0963
     21 C         137.4222  142.8058  156.5719 C.3     1  UNL1        0.2525
     22 O         138.7226  143.5256  156.3699 O.3     1  UNL1       -0.4700
     23 C         139.1616  140.2648  165.4798 C.3     1  UNL1        0.0982
     24 C         138.8991  138.8053  165.2542 C.3     1  UNL1        0.0264
     25 C         139.6064  140.7472  166.8286 C.ar    1  UNL1       -0.0041
     26 C         139.2624  139.9592  168.0578 C.ar    1  UNL1       -0.0004
     27 C         139.7072  140.4416  169.4067 C.ar    1  UNL1        0.0294
     28 C         140.4959  141.7118  169.5264 C.ar    1  UNL1        0.1401
     29 F         140.9407  142.1942  170.8753 F       1  UNL1       -0.2042
     30 C         140.8399  142.4998  168.2972 C.ar    1  UNL1        0.0294
     31 C         140.3951  142.0174  166.9483 C.ar    1  UNL1       -0.0004
@<TRIPOS>BOND
     1    21    22    1
     2    22     9    1
     3     9    10   ar
     4    10    11   ar
     5    11     1    1
     6     1     2    2
     7     2     3    1
     8     3     4    1
     9     4     5    1
    10     5     6    1
    11     6    23    1
    12    23    24    1
    13    23    25    1
    14    25    26   ar
    15    26    27   ar
    16    27    28   ar
    17    28    29    1
    18    28    30   ar
    19    30    31   ar
    20     6     7   am
    21     7     8    2
    22    11    12   ar
    23    12    13   ar
    24    13    14   ar
    25    14    15    1
    26    15    16   ar
    27    16    17   ar
    28    17    18   ar
    29    18    19    1
    30    18    20   ar
    31    14     9   ar
    32    20    15   ar
    33     7     2    1
    34    31    25   ar
@<TRIPOS>MOLECULE
*****
 31 34 0 0 0
SMALL
GASTEIGER

@<TRIPOS>ATOM
      1 C         139.2814  138.3283  160.6642 C.2     1  UNL1        0.0003
      2 C         140.5277  138.6885  159.9113 C.2     1  UNL1        0.0314
      3 C         141.6860  139.3116  160.6327 C.3     1  UNL1        0.0327
      4 C         142.9324  139.6718  159.8798 C.3     1  UNL1        0.0263
      5 C         143.0205  139.4090  158.4056 C.3     1  UNL1        0.0943
      6 N         141.8622  138.7860  157.6843 N.am    1  UNL1       -0.2742
      7 C         140.6159  138.4258  158.4372 C.2     1  UNL1        0.2452
      8 O         139.4576  137.8028  157.7158 O.2     1  UNL1       -0.2702
      9 C         138.4985  140.1318  164.1116 C.ar    1  UNL1        0.1547
     10 C         138.5866  139.8690  162.6375 C.ar    1  UNL1        0.0384
     11 C         139.1933  138.5911  162.1384 C.ar    1  UNL1        0.0029
     12 C         139.7119  137.5761  163.1134 C.ar    1  UNL1        0.0017
     13 C         139.6238  137.8390  164.5876 C.ar    1  UNL1        0.0206
     14 C         139.0171  139.1168  165.0866 C.ar    1  UNL1        0.0994
     15 N         138.9290  139.3796  166.5609 N.ar    1  UNL1       -0.2839
     16 C         137.8429  138.9015  167.4783 C.ar    1  UNL1        0.1826
     17 N         138.1542  139.3931  168.8609 N.ar    1  UNL1       -0.2280
     18 C         139.4328  140.1750  168.7979 C.ar    1  UNL1        0.0786
     19 C         140.1131  140.8472  169.9535 C.3     1  UNL1        0.0538
     20 C         139.9116  140.1666  167.3764 C.ar    1  UNL1        0.0963
     21 C         137.6503  142.5460  163.6618 C.3     1  UNL1        0.2525
     22 O         137.8917  141.4096  164.6107 O.3     1  UNL1       -0.4700
     23 C         141.9503  138.5232  156.2101 C.3     1  UNL1        0.0982
     24 C         141.7118  139.6371  155.2342 C.3     1  UNL1        0.0264
     25 C         142.2769  137.1466  155.7119 C.ar    1  UNL1       -0.0041
     26 C         141.9975  136.7798  154.2845 C.ar    1  UNL1       -0.0004
     27 C         142.3241  135.4031  153.7862 C.ar    1  UNL1        0.0294
     28 C         142.9301  134.3933  154.7153 C.ar    1  UNL1        0.1401
     29 F         143.2567  133.0168  154.2171 F       1  UNL1       -0.2042
     30 C         143.2094  134.7603  156.1427 C.ar    1  UNL1        0.0294
     31 C         142.8829  136.1369  156.6410 C.ar    1  UNL1       -0.0004
@<TRIPOS>BOND
     1    21    22    1
     2    22     9    1
     3     9    10   ar
     4    10    11   ar
     5    11     1    1
     6     1     2    2
     7     2     3    1
     8     3     4    1
     9     4     5    1
    10     5     6    1
    11     6    23    1
    12    23    24    1
    13    23    25    1
    14    25    26   ar
    15    26    27   ar
    16    27    28   ar
    17    28    29    1
    18    28    30   ar
    19    30    31   ar
    20     6     7   am
    21     7     8    2
    22    11    12   ar
    23    12    13   ar
    24    13    14   ar
    25    14    15    1
    26    15    16   ar
    27    16    17   ar
    28    17    18   ar
    29    18    19    1
    30    18    20   ar
    31    14     9   ar
    32    20    15   ar
    33     7     2    1
    34    31    25   ar
@<TRIPOS>MOLECULE
*****
 31 34 0 0 0
SMALL
GASTEIGER

@<TRIPOS>ATOM
      1 C         141.0750  144.1832  160.8417 C.2     1  UNL1        0.0003
      2 C         140.4058  144.0369  159.5072 C.2     1  UNL1        0.0314
      3 C         139.3101  143.0288  159.3242 C.3     1  UNL1        0.0327
      4 C         138.6409  142.8824  157.9898 C.3     1  UNL1        0.0263
      5 C         139.0674  143.7441  156.8384 C.3     1  UNL1        0.0943
      6 N         140.1630  144.7521  157.0214 N.am    1  UNL1       -0.2742
      7 C         140.8322  144.8984  158.3558 C.2     1  UNL1        0.2452
      8 O         141.9279  145.9065  158.5388 O.2     1  UNL1       -0.2702
      9 C         140.8245  141.0982  163.3256 C.ar    1  UNL1        0.1547
     10 C         141.2509  141.9598  162.1742 C.ar    1  UNL1        0.0384
     11 C         140.6486  143.3216  161.9931 C.ar    1  UNL1        0.0029
     12 C         139.6198  143.8217  162.9634 C.ar    1  UNL1        0.0017
     13 C         139.1934  142.9600  164.1148 C.ar    1  UNL1        0.0206
     14 C         139.7958  141.5983  164.2958 C.ar    1  UNL1        0.0994
     15 N         139.3693  140.7366  165.4473 N.ar    1  UNL1       -0.2839
     16 C         139.9098  140.8019  166.8450 C.ar    1  UNL1        0.1826
     17 N         139.2020  139.7640  167.6646 N.ar    1  UNL1       -0.2280
     18 C         138.2240  139.0573  166.7735 C.ar    1  UNL1        0.0786
     19 C         137.3041  137.9448  167.1812 C.3     1  UNL1        0.0538
     20 C         138.3274  139.6584  165.4031 C.ar    1  UNL1        0.0963
     21 C         142.8011  139.5959  164.0913 C.3     1  UNL1        0.2525
     22 O         141.4269  139.7364  163.5067 O.3     1  UNL1       -0.4700
     23 C         140.5895  145.6137  155.8699 C.3     1  UNL1        0.0982
     24 C         141.6136  145.1111  154.8961 C.3     1  UNL1        0.0264
     25 C         139.9918  146.9780  155.6924 C.ar    1  UNL1       -0.0041
     26 C         139.0830  147.5413  156.7444 C.ar    1  UNL1       -0.0004
     27 C         138.4853  148.9056  156.5670 C.ar    1  UNL1        0.0294
     28 C         138.7964  149.7065  155.3374 C.ar    1  UNL1        0.1401
     29 F         138.1987  151.0708  155.1599 F       1  UNL1       -0.2042
     30 C         139.7052  149.1432  154.2854 C.ar    1  UNL1        0.0294
     31 C         140.3029  147.7789  154.4629 C.ar    1  UNL1       -0.0004
@<TRIPOS>BOND
     1    21    22    1
     2    22     9    1
     3     9    10   ar
     4    10    11   ar
     5    11     1    1
     6     1     2    2
     7     2     3    1
     8     3     4    1
     9     4     5    1
    10     5     6    1
    11     6    23    1
    12    23    24    1
    13    23    25    1
    14    25    26   ar
    15    26    27   ar
    16    27    28   ar
    17    28    29    1
    18    28    30   ar
    19    30    31   ar
    20     6     7   am
    21     7     8    2
    22    11    12   ar
    23    12    13   ar
    24    13    14   ar
    25    14    15    1
    26    15    16   ar
    27    16    17   ar
    28    17    18   ar
    29    18    19    1
    30    18    20   ar
    31    14     9   ar
    32    20    15   ar
    33     7     2    1
    34    31    25   ar
@<TRIPOS>MOLECULE
*****
 31 34 0 0 0
SMALL
GASTEIGER

@<TRIPOS>ATOM
      1 C         140.6771  140.0181  159.6834 C.2     1  UNL1        0.0003
      2 C         140.3208  139.6020  161.0798 C.2     1  UNL1        0.0314
      3 C         140.2038  138.1461  161.4217 C.3     1  UNL1        0.0327
      4 C         139.8475  137.7299  162.8181 C.3     1  UNL1        0.0263
      5 C         139.6081  138.7696  163.8725 C.3     1  UNL1        0.0943
      6 N         139.7251  140.2254  163.5306 N.am    1  UNL1       -0.2742
      7 C         140.0815  140.6416  162.1342 C.2     1  UNL1        0.2452
      8 O         140.1985  142.0974  161.7923 O.2     1  UNL1       -0.2702
      9 C         140.0035  137.3931  156.7842 C.ar    1  UNL1        0.1547
     10 C         139.7643  138.4327  157.8386 C.ar    1  UNL1        0.0384
     11 C         140.9165  138.9784  158.6290 C.ar    1  UNL1        0.0029
     12 C         142.3079  138.4844  158.3649 C.ar    1  UNL1        0.0017
     13 C         142.5472  137.4448  157.3105 C.ar    1  UNL1        0.0206
     14 C         141.3950  136.8991  156.5202 C.ar    1  UNL1        0.0994
     15 N         141.6343  135.8594  155.4657 N.ar    1  UNL1       -0.2839
     16 C         141.6811  136.0991  153.9857 C.ar    1  UNL1        0.1826
     17 N         141.9446  134.7853  153.3115 N.ar    1  UNL1       -0.2280
     18 C         142.0606  133.7336  154.3748 C.ar    1  UNL1        0.0786
     19 C         142.3225  132.2744  154.1468 C.3     1  UNL1        0.0538
     20 C         141.8689  134.3975  155.7062 C.ar    1  UNL1        0.0963
     21 C         138.3297  137.6041  154.8084 C.3     1  UNL1        0.2525
     22 O         138.8514  136.8474  155.9938 O.3     1  UNL1       -0.4700
     23 C         139.4858  141.2651  164.5851 C.3     1  UNL1        0.0982
     24 C         138.1741  141.9907  164.6387 C.3     1  UNL1        0.0264
     25 C         140.5581  141.5791  165.5857 C.ar    1  UNL1       -0.0041
     26 C         141.9463  141.9050  165.1201 C.ar    1  UNL1       -0.0004
     27 C         143.0187  142.2191  166.1208 C.ar    1  UNL1        0.0294
     28 C         142.7029  142.2072  167.5872 C.ar    1  UNL1        0.1401
     29 F         143.7753  142.5212  168.5879 F       1  UNL1       -0.2042
     30 C         141.3147  141.8812  168.0528 C.ar    1  UNL1        0.0294
     31 C         140.2424  141.5672  167.0521 C.ar    1  UNL1       -0.0004
@<TRIPOS>BOND
     1    21    22    1
     2    22     9    1
     3     9    10   ar
     4    10    11   ar
     5    11     1    1
     6     1     2    2
     7     2     3    1
     8     3     4    1
     9     4     5    1
    10     5     6    1
    11     6    23    1
    12    23    24    1
    13    23    25    1
    14    25    26   ar
    15    26    27   ar
    16    27    28   ar
    17    28    29    1
    18    28    30   ar
    19    30    31   ar
    20     6     7   am
    21     7     8    2
    22    11    12   ar
    23    12    13   ar
    24    13    14   ar
    25    14    15    1
    26    15    16   ar
    27    16    17   ar
    28    17    18   ar
    29    18    19    1
    30    18    20   ar
    31    14     9   ar
    32    20    15   ar
    33     7     2    1
    34    31    25   ar
@<TRIPOS>MOLECULE
*****
 31 34 0 0 0
SMALL
GASTEIGER

@<TRIPOS>ATOM
      1 C         143.0446  140.2063  162.2879 C.2     1  UNL1        0.0003
      2 C         141.6474  140.5185  162.7357 C.2     1  UNL1        0.0314
      3 C         140.7376  141.3187  161.8513 C.3     1  UNL1        0.0327
      4 C         139.3404  141.6308  162.2991 C.3     1  UNL1        0.0263
      5 C         138.8530  141.1427  163.6312 C.3     1  UNL1        0.0943
      6 N         139.7628  140.3426  164.5154 N.am    1  UNL1       -0.2742
      7 C         141.1600  140.0305  164.0677 C.2     1  UNL1        0.2452
      8 O         142.0698  139.2302  164.9520 O.2     1  UNL1       -0.2702
      9 C         144.0078  140.2634  158.4384 C.ar    1  UNL1        0.1547
     10 C         143.5204  139.7754  159.7704 C.ar    1  UNL1        0.0384
     11 C         143.5319  140.6944  160.9559 C.ar    1  UNL1        0.0029
     12 C         144.0307  142.1014  160.8093 C.ar    1  UNL1        0.0017
     13 C         144.5180  142.5894  159.4773 C.ar    1  UNL1        0.0206
     14 C         144.5065  141.6704  158.2918 C.ar    1  UNL1        0.0994
     15 N         144.9939  142.1585  156.9597 N.ar    1  UNL1       -0.2839
     16 C         144.1332  142.6154  155.8194 C.ar    1  UNL1        0.1826
     17 N         145.0349  143.0146  154.6891 N.ar    1  UNL1       -0.2280
     18 C         146.4529  142.8043  155.1308 C.ar    1  UNL1        0.0786
     19 C         147.6806  143.0756  154.3129 C.3     1  UNL1        0.0538
     20 C         146.4275  142.2752  156.5342 C.ar    1  UNL1        0.0963
     21 C         142.7296  139.1375  156.4766 C.3     1  UNL1        0.2525
     22 O         143.9963  139.3444  157.2529 O.3     1  UNL1       -0.4700
     23 C         139.2755  139.8545  165.8475 C.3     1  UNL1        0.0982
     24 C         138.4406  138.6112  165.9310 C.3     1  UNL1        0.0264
     25 C         139.6231  140.6098  167.0960 C.ar    1  UNL1       -0.0041
     26 C         140.2880  141.9510  167.0005 C.ar    1  UNL1       -0.0004
     27 C         140.6356  142.7063  168.2490 C.ar    1  UNL1        0.0294
     28 C         140.3183  142.1204  169.5929 C.ar    1  UNL1        0.1401
     29 F         140.6659  142.8757  170.8414 F       1  UNL1       -0.2042
     30 C         139.6534  140.7792  169.6883 C.ar    1  UNL1        0.0294
     31 C         139.3058  140.0239  168.4399 C.ar    1  UNL1       -0.0004
@<TRIPOS>BOND
     1    21    22    1
     2    22     9    1
     3     9    10   ar
     4    10    11   ar
     5    11     1    1
     6     1     2    2
     7     2     3    1
     8     3     4    1
     9     4     5    1
    10     5     6    1
    11     6    23    1
    12    23    24    1
    13    23    25    1
    14    25    26   ar
    15    26    27   ar
    16    27    28   ar
    17    28    29    1
    18    28    30   ar
    19    30    31   ar
    20     6     7   am
    21     7     8    2
    22    11    12   ar
    23    12    13   ar
    24    13    14   ar
    25    14    15    1
    26    15    16   ar
    27    16    17   ar
    28    17    18   ar
    29    18    19    1
    30    18    20   ar
    31    14     9   ar
    32    20    15   ar
    33     7     2    1
    34    31    25   ar
@<TRIPOS>MOLECULE
*****
 31 34 0 0 0
SMALL
GASTEIGER

@<TRIPOS>ATOM
      1 C         142.7150  139.2265  161.6935 C.2     1  UNL1        0.0003
      2 C         141.7478  138.9857  160.5726 C.2     1  UNL1        0.0314
      3 C         140.2756  138.9213  160.8530 C.3     1  UNL1        0.0327
      4 C         139.3085  138.6804  159.7321 C.3     1  UNL1        0.0263
      5 C         139.8135  138.5040  158.3307 C.3     1  UNL1        0.0943
      6 N         141.2856  138.5684  158.0502 N.am    1  UNL1       -0.2742
      7 C         142.2528  138.8093  159.1712 C.2     1  UNL1        0.2452
      8 O         143.7250  138.8737  158.8907 O.2     1  UNL1       -0.2702
      9 C         141.3229  140.9435  164.9896 C.ar    1  UNL1        0.1547
     10 C         141.8279  140.7670  163.5883 C.ar    1  UNL1        0.0384
     11 C         142.2100  139.4030  163.0950 C.ar    1  UNL1        0.0029
     12 C         142.0871  138.2154  164.0030 C.ar    1  UNL1        0.0017
     13 C         141.5821  138.3919  165.4043 C.ar    1  UNL1        0.0206
     14 C         141.2000  139.7559  165.8976 C.ar    1  UNL1        0.0994
     15 N         140.6950  139.9324  167.2991 N.ar    1  UNL1       -0.2839
     16 C         139.2659  139.8234  167.7415 C.ar    1  UNL1        0.1826
     17 N         139.2182  140.0724  169.2199 N.ar    1  UNL1       -0.2280
     18 C         140.6178  140.3354  169.6912 C.ar    1  UNL1        0.0786
     19 C         141.0319  140.6326  171.1019 C.3     1  UNL1        0.0538
     20 C         141.5305  140.2488  168.5040 C.ar    1  UNL1        0.0963
     21 C         139.5411  142.8105  165.2887 C.3     1  UNL1        0.2525
     22 O         140.9408  142.3076  165.4830 O.3     1  UNL1       -0.4700
     23 C         141.7906  138.3920  156.6488 C.3     1  UNL1        0.0982
     24 C         141.9198  139.5806  155.7430 C.3     1  UNL1        0.0264
     25 C         142.1664  137.0270  156.1533 C.ar    1  UNL1       -0.0041
     26 C         143.6093  136.6215  156.0944 C.ar    1  UNL1       -0.0004
     27 C         143.9851  135.2565  155.5988 C.ar    1  UNL1        0.0294
     28 C         142.9180  134.2970  155.1623 C.ar    1  UNL1        0.1401
     29 F         143.2938  132.9320  154.6668 F       1  UNL1       -0.2042
     30 C         141.4750  134.7025  155.2212 C.ar    1  UNL1        0.0294
     31 C         141.0992  136.0675  155.7168 C.ar    1  UNL1       -0.0004
@<TRIPOS>BOND
     1    21    22    1
     2    22     9    1
     3     9    10   ar
     4    10    11   ar
     5    11     1    1
     6     1     2    2
     7     2     3    1
     8     3     4    1
     9     4     5    1
    10     5     6    1
    11     6    23    1
    12    23    24    1
    13    23    25    1
    14    25    26   ar
    15    26    27   ar
    16    27    28   ar
    17    28    29    1
    18    28    30   ar
    19    30    31   ar
    20     6     7   am
    21     7     8    2
    22    11    12   ar
    23    12    13   ar
    24    13    14   ar
    25    14    15    1
    26    15    16   ar
    27    16    17   ar
    28    17    18   ar
    29    18    19    1
    30    18    20   ar
    31    14     9   ar
    32    20    15   ar
    33     7     2    1
    34    31    25   ar
@<TRIPOS>MOLECULE
*****
 31 34 0 0 0
SMALL
GASTEIGER

@<TRIPOS>ATOM
      1 C         138.7246  142.8574  161.9278 C.2     1  UNL1        0.0003
      2 C         139.5027  141.8079  162.6648 C.2     1  UNL1        0.0314
      3 C         140.7804  141.2766  162.0859 C.3     1  UNL1        0.0327
      4 C         141.5585  140.2272  162.8229 C.3     1  UNL1        0.0263
      5 C         141.0588  139.7089  164.1389 C.3     1  UNL1        0.0943
      6 N         139.7810  140.2402  164.7178 N.am    1  UNL1       -0.2742
      7 C         139.0030  141.2897  163.9808 C.2     1  UNL1        0.2452
      8 O         137.7252  141.8209  164.5597 O.2     1  UNL1       -0.2702
      9 C         139.2656  143.2583  158.0167 C.ar    1  UNL1        0.1547
     10 C         138.7659  142.7402  159.3326 C.ar    1  UNL1        0.0384
     11 C         139.2244  143.3756  160.6117 C.ar    1  UNL1        0.0029
     12 C         140.1825  144.5290  160.5749 C.ar    1  UNL1        0.0017
     13 C         140.6822  145.0472  159.2589 C.ar    1  UNL1        0.0206
     14 C         140.2237  144.4118  157.9798 C.ar    1  UNL1        0.0994
     15 N         140.7234  144.9300  156.6638 N.ar    1  UNL1       -0.2839
     16 C         140.0688  145.9890  155.8272 C.ar    1  UNL1        0.1826
     17 N         140.9063  146.1937  154.5998 N.ar    1  UNL1       -0.2280
     18 C         142.0787  145.2611  154.6777 C.ar    1  UNL1        0.0786
     19 C         143.1720  145.1322  153.6590 C.3     1  UNL1        0.0538
     20 C         141.9656  144.4802  155.9534 C.ar    1  UNL1        0.0963
     21 C         137.5278  143.0700  156.0945 C.3     1  UNL1        0.2525
     22 O         138.8071  142.6230  156.7375 O.3     1  UNL1       -0.4700
     23 C         139.2813  139.7220  166.0338 C.3     1  UNL1        0.0982
     24 C         138.4503  138.4741  166.0818 C.3     1  UNL1        0.0264
     25 C         139.6126  140.4517  167.3018 C.ar    1  UNL1       -0.0041
     26 C         140.3606  141.7506  167.2461 C.ar    1  UNL1       -0.0004
     27 C         140.6919  142.4804  168.5141 C.ar    1  UNL1        0.0294
     28 C         140.2751  141.9111  169.8378 C.ar    1  UNL1        0.1401
     29 F         140.6063  142.6407  171.1058 F       1  UNL1       -0.2042
     30 C         139.5270  140.6120  169.8935 C.ar    1  UNL1        0.0294
     31 C         139.1958  139.8824  168.6255 C.ar    1  UNL1       -0.0004
@<TRIPOS>BOND
     1    21    22    1
     2    22     9    1
     3     9    10   ar
     4    10    11   ar
     5    11     1    1
     6     1     2    2
     7     2     3    1
     8     3     4    1
     9     4     5    1
    10     5     6    1
    11     6    23    1
    12    23    24    1
    13    23    25    1
    14    25    26   ar
    15    26    27   ar
    16    27    28   ar
    17    28    29    1
    18    28    30   ar
    19    30    31   ar
    20     6     7   am
    21     7     8    2
    22    11    12   ar
    23    12    13   ar
    24    13    14   ar
    25    14    15    1
    26    15    16   ar
    27    16    17   ar
    28    17    18   ar
    29    18    19    1
    30    18    20   ar
    31    14     9   ar
    32    20    15   ar
    33     7     2    1
    34    31    25   ar
@<TRIPOS>MOLECULE
*****
 31 34 0 0 0
SMALL
GASTEIGER

@<TRIPOS>ATOM
      1 C         142.1559  144.3125  160.8324 C.2     1  UNL1        0.0003
      2 C         141.1528  144.0202  159.7561 C.2     1  UNL1        0.0314
      3 C         139.9563  143.1673  160.0576 C.3     1  UNL1        0.0327
      4 C         138.9532  142.8749  158.9813 C.3     1  UNL1        0.0263
      5 C         139.1467  143.4355  157.6035 C.3     1  UNL1        0.0943
      6 N         140.3432  144.2884  157.3020 N.am    1  UNL1       -0.2742
      7 C         141.3463  144.5807  158.3783 C.2     1  UNL1        0.2452
      8 O         142.5428  145.4336  158.0767 O.2     1  UNL1       -0.2702
      9 C         142.3851  141.8740  163.9550 C.ar    1  UNL1        0.1547
     10 C         142.5785  142.4345  162.5772 C.ar    1  UNL1        0.0384
     11 C         141.9624  143.7520  162.2102 C.ar    1  UNL1        0.0029
     12 C         141.1528  144.5088  163.2209 C.ar    1  UNL1        0.0017
     13 C         140.9593  143.9482  164.5987 C.ar    1  UNL1        0.0206
     14 C         141.5755  142.6308  164.9657 C.ar    1  UNL1        0.0994
     15 N         141.3820  142.0702  166.3436 N.ar    1  UNL1       -0.2839
     16 C         142.4084  142.0444  167.4371 C.ar    1  UNL1        0.1826
     17 N         141.7888  141.3953  168.6391 N.ar    1  UNL1       -0.2280
     18 C         140.3795  141.0199  168.2885 C.ar    1  UNL1        0.0786
     19 C         139.3945  140.3458  169.1970 C.3     1  UNL1        0.0538
     20 C         140.1280  141.4371  166.8698 C.ar    1  UNL1        0.0963
     21 C         144.4935  140.4065  164.3435 C.3     1  UNL1        0.2525
     22 O         143.0012  140.5565  164.3220 O.3     1  UNL1       -0.4700
     23 C         140.5367  144.8489  155.9241 C.3     1  UNL1        0.0982
     24 C         141.1815  144.0134  154.8583 C.3     1  UNL1        0.0264
     25 C         140.0854  146.2450  155.6122 C.ar    1  UNL1       -0.0041
     26 C         139.2407  146.9977  156.5970 C.ar    1  UNL1       -0.0004
     27 C         138.7893  148.3938  156.2851 C.ar    1  UNL1        0.0294
     28 C         139.1828  149.0372  154.9884 C.ar    1  UNL1        0.1401
     29 F         138.7315  150.4332  154.6765 F       1  UNL1       -0.2042
     30 C         140.0276  148.2844  154.0037 C.ar    1  UNL1        0.0294
     31 C         140.4789  146.8883  154.3156 C.ar    1  UNL1       -0.0004
@<TRIPOS>BOND
     1    21    22    1
     2    22     9    1
     3     9    10   ar
     4    10    11   ar
     5    11     1    1
     6     1     2    2
     7     2     3    1
     8     3     4    1
     9     4     5    1
    10     5     6    1
    11     6    23    1
    12    23    24    1
    13    23    25    1
    14    25    26   ar
    15    26    27   ar
    16    27    28   ar
    17    28    29    1
    18    28    30   ar
    19    30    31   ar
    20     6     7   am
    21     7     8    2
    22    11    12   ar
    23    12    13   ar
    24    13    14   ar
    25    14    15    1
    26    15    16   ar
    27    16    17   ar
    28    17    18   ar
    29    18    19    1
    30    18    20   ar
    31    14     9   ar
    32    20    15   ar
    33     7     2    1
    34    31    25   ar
