@<TRIPOS>MOLECULE
*****
 43 46 0 0 0
SMALL
GASTEIGER

@<TRIPOS>ATOM
      1 C         142.4145  142.3873  161.1488 C.3     1  UNL1        0.1235
      2 N         142.7648  142.0428  162.5662 N.am    1  UNL1       -0.2396
      3 C         144.1007  141.5648  163.0529 C.2     1  UNL1        0.4054
      4 O         145.3208  141.3474  162.2079 O.2     1  UNL1       -0.2262
      5 O         144.0023  141.3424  164.5331 O.3     1  UNL1       -0.4320
      6 C         142.6055  141.6830  164.9611 C.3     1  UNL1        0.2107
      7 C         141.8407  142.1158  163.7454 C.3     1  UNL1        0.1232
      8 C         140.4041  142.5461  163.7145 C.3     1  UNL1        0.0258
      9 C         142.0679  141.6044  166.3591 C.ar    1  UNL1        0.0189
     10 C         142.7726  142.3175  167.4749 C.ar    1  UNL1        0.0031
     11 C         142.2350  142.2390  168.8730 C.ar    1  UNL1        0.0712
     12 C         140.9926  141.4474  169.1555 C.ar    1  UNL1        0.0077
     13 C         140.2878  140.7343  168.0397 C.ar    1  UNL1        0.0712
     14 C         140.8255  140.8128  166.6416 C.ar    1  UNL1        0.0031
     15 C         142.9398  142.9520  169.9887 C.3     1  UNL1        0.4186
     16 F         143.6446  143.6651  171.1044 F       1  UNL1       -0.1659
     17 F         144.1188  142.0389  169.8275 F       1  UNL1       -0.1659
     18 F         141.7608  143.8653  170.1499 F       1  UNL1       -0.1659
     19 C         139.0454  139.9427  168.3222 C.3     1  UNL1        0.4186
     20 F         137.8030  139.1511  168.6047 F       1  UNL1       -0.1659
     21 F         138.7273  139.9189  166.8565 F       1  UNL1       -0.1659
     22 F         139.3634  139.9665  169.7879 F       1  UNL1       -0.1659
     23 C         141.8285  140.1700  159.9282 C.ar    1  UNL1        0.0005
     24 C         142.0916  139.1831  158.8296 C.ar    1  UNL1       -0.0002
     25 C         143.2037  139.4268  157.8530 C.ar    1  UNL1        0.0038
     26 C         144.0528  140.6573  157.9750 C.ar    1  UNL1        0.0712
     27 C         143.7898  141.6442  159.0736 C.ar    1  UNL1        0.0012
     28 C         142.6776  141.4004  160.0502 C.ar    1  UNL1       -0.0022
     29 C         139.3658  140.5355  160.6708 C.ar    1  UNL1        0.1386
     30 C         138.2537  140.2918  161.6474 C.ar    1  UNL1        0.0366
     31 C         138.4921  139.4388  162.8580 C.ar    1  UNL1       -0.0012
     32 C         139.8427  138.8295  163.0920 C.ar    1  UNL1       -0.0223
     33 C         140.9548  139.0733  162.1154 C.ar    1  UNL1       -0.0013
     34 C         140.7163  139.9262  160.9048 C.ar    1  UNL1        0.0334
     35 C         140.0811  137.9765  164.3026 C.3     1  UNL1        0.0224
     36 C         141.4825  137.6440  164.7216 C.3     1  UNL1        0.0047
     37 C         138.9182  137.4561  165.0942 C.3     1  UNL1        0.0047
     38 C         139.0853  142.8821  159.5916 C.3     1  UNL1        0.2525
     39 O         139.1274  141.3885  159.4602 O.3     1  UNL1       -0.4714
     40 C         145.1650  140.9010  156.9984 C.3     1  UNL1        0.4186
     41 F         146.2771  141.1446  156.0218 F       1  UNL1       -0.1659
     42 F         144.7531  139.6832  156.2256 F       1  UNL1       -0.1659
     43 F         145.5768  142.1188  157.7712 F       1  UNL1       -0.1659
@<TRIPOS>BOND
     1    38    39    1
     2    39    29    1
     3    29    30   ar
     4    30    31   ar
     5    31    32   ar
     6    32    35    1
     7    35    36    1
     8    35    37    1
     9    32    33   ar
    10    33    34   ar
    11    34    23    1
    12    23    24   ar
    13    24    25   ar
    14    25    26   ar
    15    26    40    1
    16    40    41    1
    17    40    42    1
    18    40    43    1
    19    26    27   ar
    20    27    28   ar
    21    28     1    1
    22     1     2    1
    23     2     3   am
    24     3     4    2
    25     3     5    1
    26     5     6    1
    27     6     9    1
    28     9    10   ar
    29    10    11   ar
    30    11    15    1
    31    15    16    1
    32    15    17    1
    33    15    18    1
    34    11    12   ar
    35    12    13   ar
    36    13    19    1
    37    19    20    1
    38    19    21    1
    39    19    22    1
    40    13    14   ar
    41     6     7    1
    42     7     8    1
    43    34    29   ar
    44    28    23   ar
    45     7     2    1
    46    14     9   ar
@<TRIPOS>MOLECULE
*****
 43 46 0 0 0
SMALL
GASTEIGER

@<TRIPOS>ATOM
      1 C         143.1479  143.1273  161.2520 C.3     1  UNL1        0.1235
      2 N         143.3594  142.6091  162.6437 N.am    1  UNL1       -0.2396
      3 C         144.6143  141.9757  163.1673 C.2     1  UNL1        0.4054
      4 O         145.8778  141.7492  162.3914 O.2     1  UNL1       -0.2262
      5 O         144.3837  141.6085  164.6034 O.3     1  UNL1       -0.4320
      6 C         142.9863  142.0150  164.9671 C.3     1  UNL1        0.2107
      7 C         142.3533  142.6334  163.7560 C.3     1  UNL1        0.1232
      8 C         140.9591  143.1801  163.6718 C.3     1  UNL1        0.0258
      9 C         142.3361  141.8348  166.3067 C.ar    1  UNL1        0.0189
     10 C         141.1048  140.9878  166.4350 C.ar    1  UNL1        0.0031
     11 C         140.4546  140.8075  167.7746 C.ar    1  UNL1        0.0712
     12 C         141.0358  141.4742  168.9861 C.ar    1  UNL1        0.0077
     13 C         142.2672  142.3213  168.8580 C.ar    1  UNL1        0.0712
     14 C         142.9173  142.5015  167.5182 C.ar    1  UNL1        0.0031
     15 C         139.2233  139.9605  167.9028 C.3     1  UNL1        0.4186
     16 F         137.9920  139.1136  168.0310 F       1  UNL1       -0.1659
     17 F         139.0344  140.0100  166.4156 F       1  UNL1       -0.1659
     18 F         139.4122  139.9110  169.3902 F       1  UNL1       -0.1659
     19 C         142.8483  142.9880  170.0695 C.3     1  UNL1        0.4186
     20 F         143.4294  143.6547  171.2810 F       1  UNL1       -0.1659
     21 F         144.0595  142.1084  169.9726 F       1  UNL1       -0.1659
     22 F         141.6371  143.8676  170.1664 F       1  UNL1       -0.1659
     23 C         142.6990  140.9799  159.8601 C.ar    1  UNL1        0.0005
     24 C         143.0105  140.1082  158.6798 C.ar    1  UNL1       -0.0002
     25 C         144.0822  140.5120  157.7112 C.ar    1  UNL1        0.0038
     26 C         144.8426  141.7876  157.9228 C.ar    1  UNL1        0.0712
     27 C         144.5312  142.6594  159.1030 C.ar    1  UNL1        0.0012
     28 C         143.4593  142.2555  160.0717 C.ar    1  UNL1       -0.0022
     29 C         140.2310  141.0987  160.6631 C.ar    1  UNL1        0.1386
     30 C         139.1593  140.6948  161.6318 C.ar    1  UNL1        0.0366
     31 C         139.4838  139.7684  162.7660 C.ar    1  UNL1       -0.0012
     32 C         140.8800  139.2458  162.9315 C.ar    1  UNL1       -0.0223
     33 C         141.9517  139.6497  161.9629 C.ar    1  UNL1       -0.0013
     34 C         141.6272  140.5761  160.8287 C.ar    1  UNL1        0.0334
     35 C         141.2045  138.3194  164.0657 C.3     1  UNL1        0.0224
     36 C         140.1311  137.4565  164.6599 C.3     1  UNL1        0.0047
     37 C         142.6024  138.2558  164.6058 C.3     1  UNL1        0.0047
     38 C         139.7106  143.4893  159.7891 C.3     1  UNL1        0.2525
     39 O         139.9065  142.0251  159.5289 O.3     1  UNL1       -0.4714
     40 C         145.9143  142.1914  156.9542 C.3     1  UNL1        0.4186
     41 F         146.9861  142.5951  155.9855 F       1  UNL1       -0.1659
     42 F         146.5960  142.9761  158.0355 F       1  UNL1       -0.1659
     43 F         145.2327  141.4066  155.8728 F       1  UNL1       -0.1659
@<TRIPOS>BOND
     1    38    39    1
     2    39    29    1
     3    29    30   ar
     4    30    31   ar
     5    31    32   ar
     6    32    35    1
     7    35    36    1
     8    35    37    1
     9    32    33   ar
    10    33    34   ar
    11    34    23    1
    12    23    24   ar
    13    24    25   ar
    14    25    26   ar
    15    26    40    1
    16    40    41    1
    17    40    42    1
    18    40    43    1
    19    26    27   ar
    20    27    28   ar
    21    28     1    1
    22     1     2    1
    23     2     3   am
    24     3     4    2
    25     3     5    1
    26     5     6    1
    27     6     9    1
    28     9    10   ar
    29    10    11   ar
    30    11    15    1
    31    15    16    1
    32    15    17    1
    33    15    18    1
    34    11    12   ar
    35    12    13   ar
    36    13    19    1
    37    19    20    1
    38    19    21    1
    39    19    22    1
    40    13    14   ar
    41     6     7    1
    42     7     8    1
    43    34    29   ar
    44    28    23   ar
    45     7     2    1
    46    14     9   ar
@<TRIPOS>MOLECULE
*****
 43 46 0 0 0
SMALL
GASTEIGER

@<TRIPOS>ATOM
      1 C         141.7253  144.7367  161.4102 C.3     1  UNL1        0.1235
      2 N         141.0590  144.0948  162.5909 N.am    1  UNL1       -0.2396
      3 C         139.5807  143.9401  162.7926 C.2     1  UNL1        0.4054
      4 O         138.5092  144.4001  161.8491 O.2     1  UNL1       -0.2262
      5 O         139.3620  143.2445  164.1035 O.3     1  UNL1       -0.4320
      6 C         140.7053  142.9693  164.7120 C.3     1  UNL1        0.2107
      7 C         141.7540  143.4948  163.7771 C.3     1  UNL1        0.1232
      8 C         143.2373  143.4316  163.9909 C.3     1  UNL1        0.0258
      9 C         140.9557  142.2883  166.0247 C.ar    1  UNL1        0.0189
     10 C         140.3652  142.8482  167.2849 C.ar    1  UNL1        0.0031
     11 C         140.6157  142.1671  168.5976 C.ar    1  UNL1        0.0712
     12 C         141.4566  140.9262  168.6503 C.ar    1  UNL1        0.0077
     13 C         142.0472  140.3662  167.3902 C.ar    1  UNL1        0.0712
     14 C         141.7966  141.0474  166.0774 C.ar    1  UNL1        0.0031
     15 C         140.0252  142.7270  169.8577 C.3     1  UNL1        0.4186
     16 F         139.4347  143.2869  171.1177 F       1  UNL1       -0.1659
     17 F         139.2462  141.4605  170.0554 F       1  UNL1       -0.1659
     18 F         140.8041  143.9936  169.6599 F       1  UNL1       -0.1659
     19 C         142.8881  139.1252  167.4429 C.3     1  UNL1        0.4186
     20 F         143.7291  137.8843  167.4956 F       1  UNL1       -0.1659
     21 F         142.5582  138.9635  168.8972 F       1  UNL1       -0.1659
     22 F         143.2180  139.2870  165.9886 F       1  UNL1       -0.1659
     23 C         141.5909  142.8980  159.5797 C.ar    1  UNL1        0.0005
     24 C         141.2227  142.4742  158.1887 C.ar    1  UNL1       -0.0002
     25 C         140.6208  143.4654  157.2372 C.ar    1  UNL1        0.0038
     26 C         140.3871  144.8804  157.6768 C.ar    1  UNL1        0.0712
     27 C         140.7553  145.3042  159.0678 C.ar    1  UNL1        0.0012
     28 C         141.3572  144.3130  160.0192 C.ar    1  UNL1       -0.0022
     29 C         143.6821  141.8315  160.6929 C.ar    1  UNL1        0.1386
     30 C         144.2840  140.8402  161.6443 C.ar    1  UNL1        0.0366
     31 C         143.3965  139.9243  162.4339 C.ar    1  UNL1       -0.0012
     32 C         141.9072  139.9996  162.2721 C.ar    1  UNL1       -0.0223
     33 C         141.3054  140.9908  161.3207 C.ar    1  UNL1       -0.0013
     34 C         142.1928  141.9068  160.5311 C.ar    1  UNL1        0.0334
     35 C         141.0197  139.0837  163.0617 C.3     1  UNL1        0.0224
     36 C         141.5307  137.7464  163.5096 C.3     1  UNL1        0.0047
     37 C         139.6213  139.5050  163.4035 C.3     1  UNL1        0.0047
     38 C         144.9952  142.3674  158.5161 C.3     1  UNL1        0.2525
     39 O         144.5696  142.7474  159.9033 O.3     1  UNL1       -0.4714
     40 C         139.7852  145.8716  156.7254 C.3     1  UNL1        0.4186
     41 F         139.1833  146.8628  155.7739 F       1  UNL1       -0.1659
     42 F         139.9113  144.8771  155.6096 F       1  UNL1       -0.1659
     43 F         139.6591  146.8661  157.8412 F       1  UNL1       -0.1659
@<TRIPOS>BOND
     1    38    39    1
     2    39    29    1
     3    29    30   ar
     4    30    31   ar
     5    31    32   ar
     6    32    35    1
     7    35    36    1
     8    35    37    1
     9    32    33   ar
    10    33    34   ar
    11    34    23    1
    12    23    24   ar
    13    24    25   ar
    14    25    26   ar
    15    26    40    1
    16    40    41    1
    17    40    42    1
    18    40    43    1
    19    26    27   ar
    20    27    28   ar
    21    28     1    1
    22     1     2    1
    23     2     3   am
    24     3     4    2
    25     3     5    1
    26     5     6    1
    27     6     9    1
    28     9    10   ar
    29    10    11   ar
    30    11    15    1
    31    15    16    1
    32    15    17    1
    33    15    18    1
    34    11    12   ar
    35    12    13   ar
    36    13    19    1
    37    19    20    1
    38    19    21    1
    39    19    22    1
    40    13    14   ar
    41     6     7    1
    42     7     8    1
    43    34    29   ar
    44    28    23   ar
    45     7     2    1
    46    14     9   ar
@<TRIPOS>MOLECULE
*****
 43 46 0 0 0
SMALL
GASTEIGER

@<TRIPOS>ATOM
      1 C         141.8118  144.1427  161.4802 C.3     1  UNL1        0.1235
      2 N         140.8613  143.7287  162.5643 N.am    1  UNL1       -0.2396
      3 C         139.4596  144.2306  162.7469 C.2     1  UNL1        0.4054
      4 O         138.7623  145.2346  161.8775 O.2     1  UNL1       -0.2262
      5 O         138.8776  143.5522  163.9516 O.3     1  UNL1       -0.4320
      6 C         139.9197  142.6311  164.5135 C.3     1  UNL1        0.2107
      7 C         141.1456  142.7401  163.6561 C.3     1  UNL1        0.1232
      8 C         142.4304  141.9921  163.8554 C.3     1  UNL1        0.0258
      9 C         139.7632  141.7548  165.7207 C.ar    1  UNL1        0.0189
     10 C         140.3628  142.1698  167.0316 C.ar    1  UNL1        0.0031
     11 C         140.2063  141.2935  168.2388 C.ar    1  UNL1        0.0712
     12 C         139.4503  140.0021  168.1353 C.ar    1  UNL1        0.0077
     13 C         138.8507  139.5870  166.8245 C.ar    1  UNL1        0.0712
     14 C         139.0072  140.4634  165.6172 C.ar    1  UNL1        0.0031
     15 C         140.8059  141.7085  169.5496 C.3     1  UNL1        0.4186
     16 F         141.4054  142.1236  170.8604 F       1  UNL1       -0.1659
     17 F         142.1072  141.0756  169.1548 F       1  UNL1       -0.1659
     18 F         139.5045  142.3415  169.9445 F       1  UNL1       -0.1659
     19 C         138.0946  138.2956  166.7210 C.3     1  UNL1        0.4186
     20 F         137.3386  137.0042  166.6174 F       1  UNL1       -0.1659
     21 F         137.3018  138.6620  167.9405 F       1  UNL1       -0.1659
     22 F         138.8874  137.9292  165.5014 F       1  UNL1       -0.1659
     23 C         141.5374  142.6729  159.3555 C.ar    1  UNL1        0.0005
     24 C         141.1404  142.5319  157.9159 C.ar    1  UNL1       -0.0002
     25 C         140.6208  143.7196  157.1614 C.ar    1  UNL1        0.0038
     26 C         140.4982  145.0484  157.8464 C.ar    1  UNL1        0.0712
     27 C         140.8952  145.1894  159.2861 C.ar    1  UNL1        0.0012
     28 C         141.4148  144.0016  160.0406 C.ar    1  UNL1       -0.0022
     29 C         143.5340  141.3028  160.2970 C.ar    1  UNL1        0.1386
     30 C         144.0535  140.1150  161.0515 C.ar    1  UNL1        0.0366
     31 C         143.0959  139.1096  161.6190 C.ar    1  UNL1       -0.0012
     32 C         141.6189  139.2919  161.4321 C.ar    1  UNL1       -0.0223
     33 C         141.0994  140.4796  160.6776 C.ar    1  UNL1       -0.0013
     34 C         142.0569  141.4851  160.1100 C.ar    1  UNL1        0.0334
     35 C         140.6613  138.2864  161.9997 C.3     1  UNL1        0.0224
     36 C         141.0934  137.3891  163.1213 C.3     1  UNL1        0.0047
     37 C         139.2716  138.1783  161.4456 C.3     1  UNL1        0.0047
     38 C         144.9070  142.2194  158.2909 C.3     1  UNL1        0.2525
     39 O         144.4916  142.3082  159.7294 O.3     1  UNL1       -0.4714
     40 C         139.9787  146.2361  157.0919 C.3     1  UNL1        0.4186
     41 F         139.4591  147.4238  156.3374 F       1  UNL1       -0.1659
     42 F         140.4378  145.6189  155.8042 F       1  UNL1       -0.1659
     43 F         139.5196  146.8533  158.3796 F       1  UNL1       -0.1659
@<TRIPOS>BOND
     1    38    39    1
     2    39    29    1
     3    29    30   ar
     4    30    31   ar
     5    31    32   ar
     6    32    35    1
     7    35    36    1
     8    35    37    1
     9    32    33   ar
    10    33    34   ar
    11    34    23    1
    12    23    24   ar
    13    24    25   ar
    14    25    26   ar
    15    26    40    1
    16    40    41    1
    17    40    42    1
    18    40    43    1
    19    26    27   ar
    20    27    28   ar
    21    28     1    1
    22     1     2    1
    23     2     3   am
    24     3     4    2
    25     3     5    1
    26     5     6    1
    27     6     9    1
    28     9    10   ar
    29    10    11   ar
    30    11    15    1
    31    15    16    1
    32    15    17    1
    33    15    18    1
    34    11    12   ar
    35    12    13   ar
    36    13    19    1
    37    19    20    1
    38    19    21    1
    39    19    22    1
    40    13    14   ar
    41     6     7    1
    42     7     8    1
    43    34    29   ar
    44    28    23   ar
    45     7     2    1
    46    14     9   ar
@<TRIPOS>MOLECULE
*****
 43 46 0 0 0
SMALL
GASTEIGER

@<TRIPOS>ATOM
      1 C         144.0774  143.2127  161.5705 C.3     1  UNL1        0.1235
      2 N         143.7776  142.3297  162.7455 N.am    1  UNL1       -0.2396
      3 C         144.1722  140.8898  162.8896 C.2     1  UNL1        0.4054
      4 O         144.9360  140.0800  161.8842 O.2     1  UNL1       -0.2262
      5 O         143.6690  140.4018  164.2158 O.3     1  UNL1       -0.4320
      6 C         142.9633  141.5402  164.8912 C.3     1  UNL1        0.2107
      7 C         143.0304  142.7317  163.9825 C.3     1  UNL1        0.1232
      8 C         142.4520  144.0872  164.2617 C.3     1  UNL1        0.0258
      9 C         142.3060  141.4950  166.2387 C.ar    1  UNL1        0.0189
     10 C         142.9100  142.2382  167.3932 C.ar    1  UNL1        0.0031
     11 C         142.2527  142.1930  168.7407 C.ar    1  UNL1        0.0712
     12 C         140.9913  141.4046  168.9338 C.ar    1  UNL1        0.0077
     13 C         140.3872  140.6613  167.7793 C.ar    1  UNL1        0.0712
     14 C         141.0446  140.7066  166.4318 C.ar    1  UNL1        0.0031
     15 C         142.8567  142.9362  169.8951 C.3     1  UNL1        0.4186
     16 F         143.4607  143.6795  171.0496 F       1  UNL1       -0.1659
     17 F         144.1991  142.3518  169.5690 F       1  UNL1       -0.1659
     18 F         141.5142  143.5207  170.2213 F       1  UNL1       -0.1659
     19 C         139.1258  139.8729  167.9724 C.3     1  UNL1        0.4186
     20 F         137.8644  139.0845  168.1655 F       1  UNL1       -0.1659
     21 F         139.2909  139.2743  166.6070 F       1  UNL1       -0.1659
     22 F         138.9607  140.4715  169.3378 F       1  UNL1       -0.1659
     23 C         142.2863  142.7181  159.7547 C.ar    1  UNL1        0.0005
     24 C         141.9317  142.2679  158.3685 C.ar    1  UNL1       -0.0002
     25 C         143.0135  141.8623  157.4119 C.ar    1  UNL1        0.0038
     26 C         144.4500  141.9068  157.8414 C.ar    1  UNL1        0.0712
     27 C         144.8047  142.3569  159.2277 C.ar    1  UNL1        0.0012
     28 C         143.7228  142.7626  160.1843 C.ar    1  UNL1       -0.0022
     29 C         140.7352  144.5478  160.7528 C.ar    1  UNL1        0.1386
     30 C         139.6534  144.9533  161.7094 C.ar    1  UNL1        0.0366
     31 C         139.0408  143.9348  162.6245 C.ar    1  UNL1       -0.0012
     32 C         139.5101  142.5108  162.5830 C.ar    1  UNL1       -0.0223
     33 C         140.5919  142.1052  161.6264 C.ar    1  UNL1       -0.0013
     34 C         141.2045  143.1237  160.7113 C.ar    1  UNL1        0.0334
     35 C         138.8975  141.4923  163.4981 C.3     1  UNL1        0.0224
     36 C         138.0637  141.9361  164.6633 C.3     1  UNL1        0.0047
     37 C         139.1187  140.0299  163.2480 C.3     1  UNL1        0.0047
     38 C         140.7224  145.8486  158.5039 C.3     1  UNL1        0.2525
     39 O         141.3478  145.5663  159.8377 O.3     1  UNL1       -0.4714
     40 C         145.5318  141.5012  156.8848 C.3     1  UNL1        0.4186
     41 F         146.6136  141.0956  155.9282 F       1  UNL1       -0.1659
     42 F         144.6659  140.3860  156.3785 F       1  UNL1       -0.1659
     43 F         146.3977  142.6164  157.3912 F       1  UNL1       -0.1659
@<TRIPOS>BOND
     1    38    39    1
     2    39    29    1
     3    29    30   ar
     4    30    31   ar
     5    31    32   ar
     6    32    35    1
     7    35    36    1
     8    35    37    1
     9    32    33   ar
    10    33    34   ar
    11    34    23    1
    12    23    24   ar
    13    24    25   ar
    14    25    26   ar
    15    26    40    1
    16    40    41    1
    17    40    42    1
    18    40    43    1
    19    26    27   ar
    20    27    28   ar
    21    28     1    1
    22     1     2    1
    23     2     3   am
    24     3     4    2
    25     3     5    1
    26     5     6    1
    27     6     9    1
    28     9    10   ar
    29    10    11   ar
    30    11    15    1
    31    15    16    1
    32    15    17    1
    33    15    18    1
    34    11    12   ar
    35    12    13   ar
    36    13    19    1
    37    19    20    1
    38    19    21    1
    39    19    22    1
    40    13    14   ar
    41     6     7    1
    42     7     8    1
    43    34    29   ar
    44    28    23   ar
    45     7     2    1
    46    14     9   ar
@<TRIPOS>MOLECULE
*****
 43 46 0 0 0
SMALL
GASTEIGER

@<TRIPOS>ATOM
      1 C         141.8512  144.1917  161.4690 C.3     1  UNL1        0.1235
      2 N         140.9009  143.7969  162.5604 N.am    1  UNL1       -0.2396
      3 C         139.5111  144.3271  162.7537 C.2     1  UNL1        0.4054
      4 O         138.8276  145.3450  161.8896 O.2     1  UNL1       -0.2262
      5 O         138.9247  143.6605  163.9628 O.3     1  UNL1       -0.4320
      6 C         139.9522  142.7184  164.5167 C.3     1  UNL1        0.2107
      7 C         141.1735  142.8027  163.6500 C.3     1  UNL1        0.1232
      8 C         142.4444  142.0288  163.8395 C.3     1  UNL1        0.0258
      9 C         139.7873  141.8453  165.7252 C.ar    1  UNL1        0.0189
     10 C         139.0492  140.5441  165.6154 C.ar    1  UNL1        0.0031
     11 C         138.8843  139.6710  166.8238 C.ar    1  UNL1        0.0712
     12 C         139.4575  140.0990  168.1422 C.ar    1  UNL1        0.0077
     13 C         140.1957  141.4002  168.2521 C.ar    1  UNL1        0.0712
     14 C         140.3606  142.2733  167.0436 C.ar    1  UNL1        0.0031
     15 C         138.1462  138.3698  166.7139 C.3     1  UNL1        0.4186
     16 F         137.4080  137.0686  166.6040 F       1  UNL1       -0.1659
     17 F         138.9125  138.0403  165.4673 F       1  UNL1       -0.1659
     18 F         137.3797  138.6993  167.9606 F       1  UNL1       -0.1659
     19 C         140.7689  141.8283  169.5705 C.3     1  UNL1        0.4186
     20 F         141.3422  142.2563  170.8889 F       1  UNL1       -0.1659
     21 F         140.2117  143.2057  169.3656 F       1  UNL1       -0.1659
     22 F         141.3262  140.4508  169.7754 F       1  UNL1       -0.1659
     23 C         141.5583  142.6891  159.3699 C.ar    1  UNL1        0.0005
     24 C         141.1588  142.5281  157.9331 C.ar    1  UNL1       -0.0002
     25 C         140.6530  143.7088  157.1585 C.ar    1  UNL1        0.0038
     26 C         140.5465  145.0505  157.8207 C.ar    1  UNL1        0.0712
     27 C         140.9459  145.2115  159.2575 C.ar    1  UNL1        0.0012
     28 C         141.4518  144.0307  160.0322 C.ar    1  UNL1       -0.0022
     29 C         143.5399  141.2774  160.2811 C.ar    1  UNL1        0.1386
     30 C         144.0458  140.0967  161.0557 C.ar    1  UNL1        0.0366
     31 C         143.0758  139.1469  161.6937 C.ar    1  UNL1       -0.0012
     32 C         141.6000  139.3779  161.5572 C.ar    1  UNL1       -0.0223
     33 C         141.0942  140.5586  160.7826 C.ar    1  UNL1       -0.0013
     34 C         142.0642  141.5083  160.1446 C.ar    1  UNL1        0.0334
     35 C         140.6301  138.4281  162.1953 C.3     1  UNL1        0.0224
     36 C         139.1610  138.5609  161.9229 C.3     1  UNL1        0.0047
     37 C         141.1292  137.3456  163.1057 C.3     1  UNL1        0.0047
     38 C         144.8671  142.0736  158.1943 C.3     1  UNL1        0.2525
     39 O         144.5099  142.2272  159.6430 O.3     1  UNL1       -0.4714
     40 C         140.0406  146.2312  157.0461 C.3     1  UNL1        0.4186
     41 F         139.5347  147.4118  156.2715 F       1  UNL1       -0.1659
     42 F         139.5871  146.8746  158.3229 F       1  UNL1       -0.1659
     43 F         140.4941  145.5878  155.7693 F       1  UNL1       -0.1659
@<TRIPOS>BOND
     1    38    39    1
     2    39    29    1
     3    29    30   ar
     4    30    31   ar
     5    31    32   ar
     6    32    35    1
     7    35    36    1
     8    35    37    1
     9    32    33   ar
    10    33    34   ar
    11    34    23    1
    12    23    24   ar
    13    24    25   ar
    14    25    26   ar
    15    26    40    1
    16    40    41    1
    17    40    42    1
    18    40    43    1
    19    26    27   ar
    20    27    28   ar
    21    28     1    1
    22     1     2    1
    23     2     3   am
    24     3     4    2
    25     3     5    1
    26     5     6    1
    27     6     9    1
    28     9    10   ar
    29    10    11   ar
    30    11    15    1
    31    15    16    1
    32    15    17    1
    33    15    18    1
    34    11    12   ar
    35    12    13   ar
    36    13    19    1
    37    19    20    1
    38    19    21    1
    39    19    22    1
    40    13    14   ar
    41     6     7    1
    42     7     8    1
    43    34    29   ar
    44    28    23   ar
    45     7     2    1
    46    14     9   ar
@<TRIPOS>MOLECULE
*****
 43 46 0 0 0
SMALL
GASTEIGER

@<TRIPOS>ATOM
      1 C         139.7362  143.2324  160.5692 C.3     1  UNL1        0.1235
      2 N         140.1442  143.4261  161.9996 N.am    1  UNL1       -0.2396
      3 C         140.4392  144.7391  162.6622 C.2     1  UNL1        0.4054
      4 O         140.3782  146.0888  162.0107 O.2     1  UNL1       -0.2262
      5 O         140.8061  144.4653  164.0907 O.3     1  UNL1       -0.4320
      6 C         140.7377  142.9831  164.3109 C.3     1  UNL1        0.2107
      7 C         140.3286  142.3408  163.0186 C.3     1  UNL1        0.1232
      8 C         140.1376  140.8714  162.7859 C.3     1  UNL1        0.0258
      9 C         141.0275  142.2686  165.5975 C.ar    1  UNL1        0.0189
     10 C         141.9002  141.0486  165.5979 C.ar    1  UNL1        0.0031
     11 C         142.1900  140.3341  166.8845 C.ar    1  UNL1        0.0712
     12 C         141.6072  140.8396  168.1708 C.ar    1  UNL1        0.0077
     13 C         140.7344  142.0597  168.1706 C.ar    1  UNL1        0.0712
     14 C         140.4447  142.7741  166.8839 C.ar    1  UNL1        0.0031
     15 C         143.0627  139.1141  166.8848 C.3     1  UNL1        0.4186
     16 F         143.9354  137.8941  166.8851 F       1  UNL1       -0.1659
     17 F         142.7227  138.8713  168.3254 F       1  UNL1       -0.1659
     18 F         143.4027  139.3569  165.4441 F       1  UNL1       -0.1659
     19 C         140.1516  142.5652  169.4569 C.3     1  UNL1        0.4186
     20 F         139.5687  143.0706  170.7433 F       1  UNL1       -0.1659
     21 F         140.2263  141.1827  170.0341 F       1  UNL1       -0.1659
     22 F         140.0768  143.9477  168.8798 F       1  UNL1       -0.1659
     23 C         141.9796  143.3979  159.2692 C.ar    1  UNL1        0.0005
     24 C         142.8011  143.9983  158.1671 C.ar    1  UNL1       -0.0002
     25 C         142.2009  145.0338  157.2630 C.ar    1  UNL1        0.0038
     26 C         140.7790  145.4689  157.4610 C.ar    1  UNL1        0.0712
     27 C         139.9575  144.8684  158.5630 C.ar    1  UNL1        0.0012
     28 C         140.5578  143.8329  159.4671 C.ar    1  UNL1       -0.0022
     29 C         142.4060  140.9049  159.8639 C.ar    1  UNL1        0.1386
     30 C         143.0063  139.8695  160.7680 C.ar    1  UNL1        0.0366
     31 C         143.7805  140.2914  161.9815 C.ar    1  UNL1       -0.0012
     32 C         143.9545  141.7488  162.2909 C.ar    1  UNL1       -0.0223
     33 C         143.3542  142.7842  161.3868 C.ar    1  UNL1       -0.0013
     34 C         142.5799  142.3623  160.1733 C.ar    1  UNL1        0.0334
     35 C         144.7287  142.1707  163.5043 C.3     1  UNL1        0.0224
     36 C         144.3826  143.4496  164.2076 C.3     1  UNL1        0.0047
     37 C         145.8491  141.3138  164.0145 C.3     1  UNL1        0.0047
     38 C         140.2525  139.9131  158.8015 C.3     1  UNL1        0.2525
     39 O         141.6317  140.4830  158.6505 O.3     1  UNL1       -0.4714
     40 C         140.1788  146.5044  156.5569 C.3     1  UNL1        0.4186
     41 F         139.5785  147.5398  155.6528 F       1  UNL1       -0.1659
     42 F         140.9184  145.9161  155.3921 F       1  UNL1       -0.1659
     43 F         139.4391  147.0926  157.7217 F       1  UNL1       -0.1659
@<TRIPOS>BOND
     1    38    39    1
     2    39    29    1
     3    29    30   ar
     4    30    31   ar
     5    31    32   ar
     6    32    35    1
     7    35    36    1
     8    35    37    1
     9    32    33   ar
    10    33    34   ar
    11    34    23    1
    12    23    24   ar
    13    24    25   ar
    14    25    26   ar
    15    26    40    1
    16    40    41    1
    17    40    42    1
    18    40    43    1
    19    26    27   ar
    20    27    28   ar
    21    28     1    1
    22     1     2    1
    23     2     3   am
    24     3     4    2
    25     3     5    1
    26     5     6    1
    27     6     9    1
    28     9    10   ar
    29    10    11   ar
    30    11    15    1
    31    15    16    1
    32    15    17    1
    33    15    18    1
    34    11    12   ar
    35    12    13   ar
    36    13    19    1
    37    19    20    1
    38    19    21    1
    39    19    22    1
    40    13    14   ar
    41     6     7    1
    42     7     8    1
    43    34    29   ar
    44    28    23   ar
    45     7     2    1
    46    14     9   ar
@<TRIPOS>MOLECULE
*****
 43 46 0 0 0
SMALL
GASTEIGER

@<TRIPOS>ATOM
      1 C         141.7026  144.6878  161.3451 C.3     1  UNL1        0.1235
      2 N         141.0439  144.0377  162.5257 N.am    1  UNL1       -0.2396
      3 C         139.5679  143.8578  162.7233 C.2     1  UNL1        0.4054
      4 O         138.4914  144.2963  161.7751 O.2     1  UNL1       -0.2262
      5 O         139.3573  143.1624  164.0357 O.3     1  UNL1       -0.4320
      6 C         140.7032  142.9126  164.6490 C.3     1  UNL1        0.2107
      7 C         141.7456  143.4536  163.7158 C.3     1  UNL1        0.1232
      8 C         143.2291  143.4169  163.9343 C.3     1  UNL1        0.0258
      9 C         140.9614  142.2400  165.9646 C.ar    1  UNL1        0.0189
     10 C         141.8026  140.9992  166.0203 C.ar    1  UNL1        0.0031
     11 C         142.0608  140.3266  167.3359 C.ar    1  UNL1        0.0712
     12 C         141.4778  140.8946  168.5958 C.ar    1  UNL1        0.0077
     13 C         140.6366  142.1353  168.5402 C.ar    1  UNL1        0.0712
     14 C         140.3785  142.8079  167.2245 C.ar    1  UNL1        0.0031
     15 C         142.9020  139.0859  167.3915 C.3     1  UNL1        0.4186
     16 F         143.7432  137.8452  167.4472 F       1  UNL1       -0.1659
     17 F         142.8112  139.0915  168.8887 F       1  UNL1       -0.1659
     18 F         142.9928  139.0803  165.8942 F       1  UNL1       -0.1659
     19 C         140.0536  142.7033  169.8002 C.3     1  UNL1        0.4186
     20 F         139.4707  143.2713  171.0601 F       1  UNL1       -0.1659
     21 F         140.8155  143.9763  169.5788 F       1  UNL1       -0.1659
     22 F         139.2918  141.4303  170.0216 F       1  UNL1       -0.1659
     23 C         141.5540  142.8528  159.5119 C.ar    1  UNL1        0.0005
     24 C         141.1818  142.4337  158.1205 C.ar    1  UNL1       -0.0002
     25 C         140.5860  143.4305  157.1711 C.ar    1  UNL1        0.0038
     26 C         140.3623  144.8464  157.6130 C.ar    1  UNL1        0.0712
     27 C         140.7345  145.2655  159.0044 C.ar    1  UNL1        0.0012
     28 C         141.3304  144.2687  159.9538 C.ar    1  UNL1       -0.0022
     29 C         143.6379  141.7836  160.6363 C.ar    1  UNL1        0.1386
     30 C         144.2337  140.7868  161.5857 C.ar    1  UNL1        0.0366
     31 C         143.3415  139.8624  162.3601 C.ar    1  UNL1       -0.0012
     32 C         141.8535  139.9349  162.1851 C.ar    1  UNL1       -0.0223
     33 C         141.2577  140.9317  161.2357 C.ar    1  UNL1       -0.0013
     34 C         142.1499  141.8560  160.4613 C.ar    1  UNL1        0.0334
     35 C         140.9614  139.0105  162.9594 C.3     1  UNL1        0.0224
     36 C         141.4173  137.6164  163.2734 C.3     1  UNL1        0.0047
     37 C         139.6133  139.4803  163.4199 C.3     1  UNL1        0.0047
     38 C         144.9671  142.3410  158.4748 C.3     1  UNL1        0.2525
     39 O         144.5300  142.7079  159.8620 O.3     1  UNL1       -0.4714
     40 C         139.7664  145.8431  156.6636 C.3     1  UNL1        0.4186
     41 F         139.1706  146.8398  155.7142 F       1  UNL1       -0.1659
     42 F         139.8372  144.8321  155.5578 F       1  UNL1       -0.1659
     43 F         139.6957  146.8541  157.7694 F       1  UNL1       -0.1659
@<TRIPOS>BOND
     1    38    39    1
     2    39    29    1
     3    29    30   ar
     4    30    31   ar
     5    31    32   ar
     6    32    35    1
     7    35    36    1
     8    35    37    1
     9    32    33   ar
    10    33    34   ar
    11    34    23    1
    12    23    24   ar
    13    24    25   ar
    14    25    26   ar
    15    26    40    1
    16    40    41    1
    17    40    42    1
    18    40    43    1
    19    26    27   ar
    20    27    28   ar
    21    28     1    1
    22     1     2    1
    23     2     3   am
    24     3     4    2
    25     3     5    1
    26     5     6    1
    27     6     9    1
    28     9    10   ar
    29    10    11   ar
    30    11    15    1
    31    15    16    1
    32    15    17    1
    33    15    18    1
    34    11    12   ar
    35    12    13   ar
    36    13    19    1
    37    19    20    1
    38    19    21    1
    39    19    22    1
    40    13    14   ar
    41     6     7    1
    42     7     8    1
    43    34    29   ar
    44    28    23   ar
    45     7     2    1
    46    14     9   ar
@<TRIPOS>MOLECULE
*****
 43 46 0 0 0
SMALL
GASTEIGER

@<TRIPOS>ATOM
      1 C         139.5980  143.1715  161.0050 C.3     1  UNL1        0.1235
      2 N         140.0843  143.3853  162.4079 N.am    1  UNL1       -0.2396
      3 C         140.5946  144.6759  162.9770 C.2     1  UNL1        0.4054
      4 O         140.7083  145.9793  162.2433 O.2     1  UNL1       -0.2262
      5 O         140.9713  144.4343  164.4087 O.3     1  UNL1       -0.4320
      6 C         140.6937  142.9944  164.7244 C.3     1  UNL1        0.2107
      7 C         140.1455  142.3461  163.4878 C.3     1  UNL1        0.1232
      8 C         139.7313  140.9106  163.3544 C.3     1  UNL1        0.0258
      9 C         140.9240  142.3210  166.0447 C.ar    1  UNL1        0.0189
     10 C         140.3206  142.8924  167.2935 C.ar    1  UNL1        0.0031
     11 C         140.5508  142.2191  168.6139 C.ar    1  UNL1        0.0712
     12 C         141.3845  140.9742  168.6856 C.ar    1  UNL1        0.0077
     13 C         141.9879  140.4026  167.4369 C.ar    1  UNL1        0.0712
     14 C         141.7576  141.0761  166.1165 C.ar    1  UNL1        0.0031
     15 C         139.9474  142.7906  169.8625 C.3     1  UNL1        0.4186
     16 F         139.3439  143.3621  171.1112 F       1  UNL1       -0.1659
     17 F         139.1931  141.5129  170.0829 F       1  UNL1       -0.1659
     18 F         140.7016  144.0684  169.6422 F       1  UNL1       -0.1659
     19 C         142.8216  139.1577  167.5086 C.3     1  UNL1        0.4186
     20 F         143.6553  137.9128  167.5804 F       1  UNL1       -0.1659
     21 F         142.9192  139.3089  168.9978 F       1  UNL1       -0.1659
     22 F         142.7240  139.0065  166.0195 F       1  UNL1       -0.1659
     23 C         141.7518  142.8188  159.5955 C.ar    1  UNL1        0.0005
     24 C         142.6212  143.2000  158.4341 C.ar    1  UNL1       -0.0002
     25 C         142.2062  144.3153  157.5209 C.ar    1  UNL1        0.0038
     26 C         140.9218  145.0493  157.7691 C.ar    1  UNL1        0.0712
     27 C         140.0524  144.6681  158.9304 C.ar    1  UNL1        0.0012
     28 C         140.4674  143.5528  159.8436 C.ar    1  UNL1       -0.0022
     29 C         141.6314  140.3190  160.2930 C.ar    1  UNL1        0.1386
     30 C         142.0464  139.2037  161.2062 C.ar    1  UNL1        0.0366
     31 C         142.9968  139.4730  162.3351 C.ar    1  UNL1       -0.0012
     32 C         143.5322  140.8574  162.5507 C.ar    1  UNL1       -0.0223
     33 C         143.1172  141.9727  161.6375 C.ar    1  UNL1       -0.0013
     34 C         142.1668  141.7034  160.5087 C.ar    1  UNL1        0.0334
     35 C         144.4826  141.1267  163.6795 C.3     1  UNL1        0.0224
     36 C         145.2533  139.9974  164.2965 C.3     1  UNL1        0.0047
     37 C         144.6623  142.5251  164.1913 C.3     1  UNL1        0.0047
     38 C         139.2519  139.6984  159.4546 C.3     1  UNL1        0.2525
     39 O         140.6810  140.0497  159.1642 O.3     1  UNL1       -0.4714
     40 C         140.5069  146.1646  156.8559 C.3     1  UNL1        0.4186
     41 F         140.0919  147.2799  155.9427 F       1  UNL1       -0.1659
     42 F         141.3482  145.5804  155.7601 F       1  UNL1       -0.1659
     43 F         139.6655  146.7488  157.9516 F       1  UNL1       -0.1659
@<TRIPOS>BOND
     1    38    39    1
     2    39    29    1
     3    29    30   ar
     4    30    31   ar
     5    31    32   ar
     6    32    35    1
     7    35    36    1
     8    35    37    1
     9    32    33   ar
    10    33    34   ar
    11    34    23    1
    12    23    24   ar
    13    24    25   ar
    14    25    26   ar
    15    26    40    1
    16    40    41    1
    17    40    42    1
    18    40    43    1
    19    26    27   ar
    20    27    28   ar
    21    28     1    1
    22     1     2    1
    23     2     3   am
    24     3     4    2
    25     3     5    1
    26     5     6    1
    27     6     9    1
    28     9    10   ar
    29    10    11   ar
    30    11    15    1
    31    15    16    1
    32    15    17    1
    33    15    18    1
    34    11    12   ar
    35    12    13   ar
    36    13    19    1
    37    19    20    1
    38    19    21    1
    39    19    22    1
    40    13    14   ar
    41     6     7    1
    42     7     8    1
    43    34    29   ar
    44    28    23   ar
    45     7     2    1
    46    14     9   ar
