@<TRIPOS>MOLECULE
*****
 25 26 0 0 0
SMALL
GASTEIGER

@<TRIPOS>ATOM
      1 C         140.2276  140.1389  169.5259 C.ar    1  UNL1        0.1386
      2 C         139.6990  140.3105  168.1327 C.ar    1  UNL1        0.0369
      3 C         140.6500  140.4897  166.9865 C.ar    1  UNL1        0.0031
      4 C         142.1294  140.4973  167.2337 C.ar    1  UNL1        0.0011
      5 C         142.6580  140.3257  168.6269 C.ar    1  UNL1        0.0031
      6 C         141.7070  140.1465  169.7730 C.ar    1  UNL1        0.0369
      7 C         143.0804  140.6764  166.0875 C.ar    1  UNL1        0.0136
      8 C         143.3564  142.0491  165.5496 C.ar    1  UNL1        0.0380
      9 C         144.3073  142.2283  164.4034 C.ar    1  UNL1        0.1469
     10 C         144.9822  141.0348  163.7952 C.ar    1  UNL1        0.0380
     11 C         144.7062  139.6621  164.3332 C.ar    1  UNL1        0.0145
     12 C         143.7553  139.4829  165.4793 C.ar    1  UNL1        0.0578
     13 CL        143.4793  138.1101  166.0173 Cl      1  UNL1       -0.0822
     14 O         144.5833  143.6011  163.8655 O.3     1  UNL1       -0.4045
     15 C         143.4902  144.6278  163.8332 C.3     1  UNL1        0.5753
     16 F         142.3970  145.6544  163.8010 F       1  UNL1       -0.1328
     17 F         142.7545  143.8124  162.8116 F       1  UNL1       -0.1328
     18 F         144.2259  145.4432  164.8549 F       1  UNL1       -0.1328
     19 O         139.2766  139.9597  170.6721 O.3     1  UNL1       -0.4755
     20 C         137.7972  140.0429  170.4392 C.3     1  UNL1        0.2058
     21 C         136.9506  138.8093  170.5460 C.3     1  UNL1        0.0532
     22 C         135.9427  138.6847  171.6501 C.3     1  UNL1        0.0455
     23 O         136.6945  136.2332  172.0688 O.co2   1  UNL1       -0.5492
     24 C         135.7677  137.3758  172.3615 C.2     1  UNL1        0.0505
     25 O         134.6658  137.2094  173.3655 O.co2   1  UNL1       -0.5492
@<TRIPOS>UNITY_ATOM_ATTR
23 1
charge -1
@<TRIPOS>BOND
     1    23    24   ar
     2    24    25   ar
     3    24    22    1
     4    22    21    1
     5    21    20    1
     6    20    19    1
     7    19     1    1
     8     1     2   ar
     9     2     3   ar
    10     3     4   ar
    11     4     7    1
    12     7     8   ar
    13     8     9   ar
    14     9    14    1
    15    14    15    1
    16    15    16    1
    17    15    17    1
    18    15    18    1
    19     9    10   ar
    20    10    11   ar
    21    11    12   ar
    22    12    13    1
    23     4     5   ar
    24     5     6   ar
    25     6     1   ar
    26    12     7   ar
@<TRIPOS>MOLECULE
*****
 25 26 0 0 0
SMALL
GASTEIGER

@<TRIPOS>ATOM
      1 C         141.6134  139.8871  168.7783 C.ar    1  UNL1        0.1386
      2 C         142.3482  139.8563  167.4709 C.ar    1  UNL1        0.0369
      3 C         141.5831  139.8383  166.1808 C.ar    1  UNL1        0.0031
      4 C         140.0833  139.8512  166.1980 C.ar    1  UNL1        0.0011
      5 C         139.3485  139.8820  167.5053 C.ar    1  UNL1        0.0031
      6 C         140.1136  139.8999  168.7955 C.ar    1  UNL1        0.0369
      7 C         139.3183  139.8332  164.9079 C.ar    1  UNL1        0.0136
      8 C         138.6604  141.0853  164.4086 C.ar    1  UNL1        0.0380
      9 C         137.8953  141.0673  163.1185 C.ar    1  UNL1        0.1469
     10 C         137.7882  139.7972  162.3277 C.ar    1  UNL1        0.0380
     11 C         138.4461  138.5451  162.8270 C.ar    1  UNL1        0.0145
     12 C         139.2111  138.5631  164.1171 C.ar    1  UNL1        0.0578
     13 CL        139.8690  137.3109  164.6164 Cl      1  UNL1       -0.0822
     14 O         137.2374  142.3195  162.6192 O.3     1  UNL1       -0.4045
     15 C         138.0290  143.5885  162.5054 C.3     1  UNL1        0.5753
     16 F         138.8206  144.8576  162.3917 F       1  UNL1       -0.1328
     17 F         138.8167  142.9958  161.3749 F       1  UNL1       -0.1328
     18 F         137.2413  144.1812  163.6360 F       1  UNL1       -0.1328
     19 O         142.3784  139.9051  170.0684 O.3     1  UNL1       -0.4755
     20 C         142.3480  141.1244  170.9414 C.3     1  UNL1        0.2058
     21 C         142.5497  142.4833  170.3392 C.3     1  UNL1        0.0532
     22 C         141.4401  143.1337  169.5672 C.3     1  UNL1        0.0455
     23 O         139.9538  145.0959  170.3984 O.co2   1  UNL1       -0.5492
     24 C         140.2158  143.6235  170.2823 C.2     1  UNL1        0.0505
     25 O         139.2536  142.6409  170.8811 O.co2   1  UNL1       -0.5492
@<TRIPOS>UNITY_ATOM_ATTR
23 1
charge -1
@<TRIPOS>BOND
     1    23    24   ar
     2    24    25   ar
     3    24    22    1
     4    22    21    1
     5    21    20    1
     6    20    19    1
     7    19     1    1
     8     1     2   ar
     9     2     3   ar
    10     3     4   ar
    11     4     7    1
    12     7     8   ar
    13     8     9   ar
    14     9    14    1
    15    14    15    1
    16    15    16    1
    17    15    17    1
    18    15    18    1
    19     9    10   ar
    20    10    11   ar
    21    11    12   ar
    22    12    13    1
    23     4     5   ar
    24     5     6   ar
    25     6     1   ar
    26    12     7   ar
@<TRIPOS>MOLECULE
*****
 25 26 0 0 0
SMALL
GASTEIGER

@<TRIPOS>ATOM
      1 C         142.7513  141.1939  168.5370 C.ar    1  UNL1        0.1386
      2 C         142.7924  142.0446  167.3023 C.ar    1  UNL1        0.0369
      3 C         142.7912  141.4008  165.9475 C.ar    1  UNL1        0.0031
      4 C         142.7490  139.9063  165.8273 C.ar    1  UNL1        0.0011
      5 C         142.7079  139.0555  167.0620 C.ar    1  UNL1        0.0031
      6 C         142.7091  139.6993  168.4168 C.ar    1  UNL1        0.0369
      7 C         142.7479  139.2625  164.4725 C.ar    1  UNL1        0.0136
      8 C         141.4866  138.6581  163.9304 C.ar    1  UNL1        0.0380
      9 C         141.4855  138.0143  162.5756 C.ar    1  UNL1        0.1469
     10 C         142.7456  137.9749  161.7629 C.ar    1  UNL1        0.0380
     11 C         144.0069  138.5793  162.3050 C.ar    1  UNL1        0.0145
     12 C         144.0080  139.2231  163.6598 C.ar    1  UNL1        0.0578
     13 CL        145.2693  139.8275  164.2019 Cl      1  UNL1       -0.0822
     14 O         140.2242  137.4099  162.0335 O.3     1  UNL1       -0.4045
     15 C         138.9206  138.1373  162.1803 C.3     1  UNL1        0.5753
     16 F         137.6170  138.8647  162.3271 F       1  UNL1       -0.1328
     17 F         139.3678  139.1443  161.1626 F       1  UNL1       -0.1328
     18 F         138.4733  137.1302  163.1980 F       1  UNL1       -0.1328
     19 O         142.7524  141.8377  169.8918 O.3     1  UNL1       -0.4755
     20 C         141.9109  143.0532  170.1453 C.3     1  UNL1        0.2058
     21 C         140.4668  143.0635  169.7396 C.3     1  UNL1        0.0532
     22 C         139.4944  142.1347  170.4044 C.3     1  UNL1        0.0455
     23 O         139.2608  140.3368  168.5434 O.co2   1  UNL1       -0.5492
     24 C         139.4302  140.6944  169.9903 C.2     1  UNL1        0.0505
     25 O         139.5354  139.6117  171.0231 O.co2   1  UNL1       -0.5492
@<TRIPOS>UNITY_ATOM_ATTR
23 1
charge -1
@<TRIPOS>BOND
     1    23    24   ar
     2    24    25   ar
     3    24    22    1
     4    22    21    1
     5    21    20    1
     6    20    19    1
     7    19     1    1
     8     1     2   ar
     9     2     3   ar
    10     3     4   ar
    11     4     7    1
    12     7     8   ar
    13     8     9   ar
    14     9    14    1
    15    14    15    1
    16    15    16    1
    17    15    17    1
    18    15    18    1
    19     9    10   ar
    20    10    11   ar
    21    11    12   ar
    22    12    13    1
    23     4     5   ar
    24     5     6   ar
    25     6     1   ar
    26    12     7   ar
@<TRIPOS>MOLECULE
*****
 25 26 0 0 0
SMALL
GASTEIGER

@<TRIPOS>ATOM
      1 C         139.4548  140.5800  169.2166 C.ar    1  UNL1        0.1386
      2 C         139.3886  140.0289  167.8232 C.ar    1  UNL1        0.0369
      3 C         139.9409  140.8219  166.6760 C.ar    1  UNL1        0.0031
      4 C         140.5593  142.1661  166.9222 C.ar    1  UNL1        0.0011
      5 C         140.6254  142.7173  168.3157 C.ar    1  UNL1        0.0031
      6 C         140.0732  141.9242  169.4629 C.ar    1  UNL1        0.0369
      7 C         141.1115  142.9592  165.7750 C.ar    1  UNL1        0.0136
      8 C         142.5362  142.7667  165.3471 C.ar    1  UNL1        0.0380
      9 C         143.0884  143.5598  164.1999 C.ar    1  UNL1        0.1469
     10 C         142.2159  144.5453  163.4806 C.ar    1  UNL1        0.0380
     11 C         140.7912  144.7378  163.9085 C.ar    1  UNL1        0.0145
     12 C         140.2390  143.9447  165.0557 C.ar    1  UNL1        0.0578
     13 CL        138.8142  144.1373  165.4836 Cl      1  UNL1       -0.0822
     14 O         144.5132  143.3673  163.7720 O.3     1  UNL1       -0.4045
     15 C         144.9361  142.0789  163.1307 C.3     1  UNL1        0.5753
     16 F         145.3591  140.7905  162.4894 F       1  UNL1       -0.1328
     17 F         145.6396  141.6809  164.3943 F       1  UNL1       -0.1328
     18 F         144.2327  142.4770  161.8671 F       1  UNL1       -0.1328
     19 O         138.9026  139.7870  170.3639 O.3     1  UNL1       -0.4755
     20 C         137.4480  139.8894  170.7151 C.3     1  UNL1        0.2058
     21 C         136.5890  138.6597  170.7196 C.3     1  UNL1        0.0532
     22 C         135.7456  138.3383  171.9177 C.3     1  UNL1        0.0455
     23 O         137.0109  136.0904  172.2273 O.co2   1  UNL1       -0.5492
     24 C         135.8828  137.0076  172.5962 C.2     1  UNL1        0.0505
     25 O         134.8919  136.5941  173.6437 O.co2   1  UNL1       -0.5492
@<TRIPOS>UNITY_ATOM_ATTR
23 1
charge -1
@<TRIPOS>BOND
     1    23    24   ar
     2    24    25   ar
     3    24    22    1
     4    22    21    1
     5    21    20    1
     6    20    19    1
     7    19     1    1
     8     1     2   ar
     9     2     3   ar
    10     3     4   ar
    11     4     7    1
    12     7     8   ar
    13     8     9   ar
    14     9    14    1
    15    14    15    1
    16    15    16    1
    17    15    17    1
    18    15    18    1
    19     9    10   ar
    20    10    11   ar
    21    11    12   ar
    22    12    13    1
    23     4     5   ar
    24     5     6   ar
    25     6     1   ar
    26    12     7   ar
@<TRIPOS>MOLECULE
*****
 25 26 0 0 0
SMALL
GASTEIGER

@<TRIPOS>ATOM
      1 C         142.9780  140.1691  169.2886 C.ar    1  UNL1        0.1386
      2 C         142.4816  139.5360  168.0227 C.ar    1  UNL1        0.0369
      3 C         142.2741  140.3742  166.7961 C.ar    1  UNL1        0.0031
      4 C         142.5631  141.8455  166.8356 C.ar    1  UNL1        0.0011
      5 C         143.0596  142.4787  168.1015 C.ar    1  UNL1        0.0031
      6 C         143.2670  141.6404  169.3280 C.ar    1  UNL1        0.0369
      7 C         142.3557  142.6838  165.6090 C.ar    1  UNL1        0.0136
      8 C         141.0531  143.3976  165.4000 C.ar    1  UNL1        0.0380
      9 C         140.8457  144.2358  164.1735 C.ar    1  UNL1        0.1469
     10 C         141.9408  144.3602  163.1560 C.ar    1  UNL1        0.0380
     11 C         143.2433  143.6463  163.3651 C.ar    1  UNL1        0.0145
     12 C         143.4507  142.8081  164.5916 C.ar    1  UNL1        0.0578
     13 CL        144.7534  142.0942  164.8006 Cl      1  UNL1       -0.0822
     14 O         139.5431  144.9497  163.9644 O.3     1  UNL1       -0.4045
     15 C         138.2885  144.4208  164.5939 C.3     1  UNL1        0.5753
     16 F         137.0339  143.8918  165.2234 F       1  UNL1       -0.1328
     17 F         138.4245  145.4197  165.7045 F       1  UNL1       -0.1328
     18 F         138.1525  143.4218  163.4833 F       1  UNL1       -0.1328
     19 O         143.1855  139.3309  170.5151 O.3     1  UNL1       -0.4755
     20 C         142.9395  137.8521  170.4634 C.3     1  UNL1        0.2058
     21 C         144.0921  136.9051  170.3068 C.3     1  UNL1        0.0532
     22 C         144.4562  135.9752  171.4262 C.3     1  UNL1        0.0455
     23 O         146.2805  134.8223  172.8729 O.co2   1  UNL1       -0.5492
     24 C         145.8784  135.8859  171.8945 C.2     1  UNL1        0.0505
     25 O         146.8985  136.8602  171.3845 O.co2   1  UNL1       -0.5492
@<TRIPOS>UNITY_ATOM_ATTR
23 1
charge -1
@<TRIPOS>BOND
     1    23    24   ar
     2    24    25   ar
     3    24    22    1
     4    22    21    1
     5    21    20    1
     6    20    19    1
     7    19     1    1
     8     1     2   ar
     9     2     3   ar
    10     3     4   ar
    11     4     7    1
    12     7     8   ar
    13     8     9   ar
    14     9    14    1
    15    14    15    1
    16    15    16    1
    17    15    17    1
    18    15    18    1
    19     9    10   ar
    20    10    11   ar
    21    11    12   ar
    22    12    13    1
    23     4     5   ar
    24     5     6   ar
    25     6     1   ar
    26    12     7   ar
@<TRIPOS>MOLECULE
*****
 25 26 0 0 0
SMALL
GASTEIGER

@<TRIPOS>ATOM
      1 C         139.6675  140.5852  167.4122 C.ar    1  UNL1        0.1386
      2 C         140.3294  141.9109  167.6448 C.ar    1  UNL1        0.0369
      3 C         140.5227  142.8634  166.5022 C.ar    1  UNL1        0.0031
      4 C         140.0541  142.4901  165.1271 C.ar    1  UNL1        0.0011
      5 C         139.3921  141.1643  164.8946 C.ar    1  UNL1        0.0031
      6 C         139.1988  140.2119  166.0371 C.ar    1  UNL1        0.0369
      7 C         140.2474  143.4425  163.9845 C.ar    1  UNL1        0.0136
      8 C         141.5279  143.4269  163.2035 C.ar    1  UNL1        0.0380
      9 C         141.7212  144.3794  162.0609 C.ar    1  UNL1        0.1469
     10 C         140.6340  145.3474  161.6994 C.ar    1  UNL1        0.0380
     11 C         139.3535  145.3631  162.4804 C.ar    1  UNL1        0.0145
     12 C         139.1602  144.4106  163.6230 C.ar    1  UNL1        0.0578
     13 CL        137.8796  144.4263  164.4040 Cl      1  UNL1       -0.0822
     14 O         143.0018  144.3637  161.2799 O.3     1  UNL1       -0.4045
     15 C         143.9938  143.2581  161.4882 C.3     1  UNL1        0.5753
     16 F         144.9859  142.1524  161.6966 F       1  UNL1       -0.1328
     17 F         144.7652  144.1286  162.4354 F       1  UNL1       -0.1328
     18 F         143.2225  142.3875  160.5411 F       1  UNL1       -0.1328
     19 O         139.4742  139.6327  168.5548 O.3     1  UNL1       -0.4755
     20 C         139.9818  139.9874  169.9210 C.3     1  UNL1        0.2058
     21 C         141.4091  139.7065  170.2870 C.3     1  UNL1        0.0532
     22 C         142.3235  140.8353  170.6610 C.3     1  UNL1        0.0455
     23 O         142.2292  143.4281  170.5232 O.co2   1  UNL1       -0.5492
     24 C         141.7512  142.1410  171.1276 C.2     1  UNL1        0.0505
     25 O         140.7011  142.1597  172.1985 O.co2   1  UNL1       -0.5492
@<TRIPOS>UNITY_ATOM_ATTR
23 1
charge -1
@<TRIPOS>BOND
     1    23    24   ar
     2    24    25   ar
     3    24    22    1
     4    22    21    1
     5    21    20    1
     6    20    19    1
     7    19     1    1
     8     1     2   ar
     9     2     3   ar
    10     3     4   ar
    11     4     7    1
    12     7     8   ar
    13     8     9   ar
    14     9    14    1
    15    14    15    1
    16    15    16    1
    17    15    17    1
    18    15    18    1
    19     9    10   ar
    20    10    11   ar
    21    11    12   ar
    22    12    13    1
    23     4     5   ar
    24     5     6   ar
    25     6     1   ar
    26    12     7   ar
@<TRIPOS>MOLECULE
*****
 25 26 0 0 0
SMALL
GASTEIGER

@<TRIPOS>ATOM
      1 C         139.0336  140.2335  169.5952 C.ar    1  UNL1        0.1386
      2 C         138.9975  139.6064  168.2331 C.ar    1  UNL1        0.0369
      3 C         139.6479  140.2978  167.0716 C.ar    1  UNL1        0.0031
      4 C         140.3344  141.6162  167.2722 C.ar    1  UNL1        0.0011
      5 C         140.3705  142.2434  168.6343 C.ar    1  UNL1        0.0031
      6 C         139.7201  141.5520  169.7958 C.ar    1  UNL1        0.0369
      7 C         140.9847  142.3076  166.1107 C.ar    1  UNL1        0.0136
      8 C         140.1624  142.7152  164.9243 C.ar    1  UNL1        0.0380
      9 C         140.8128  143.4066  163.7629 C.ar    1  UNL1        0.1469
     10 C         142.2855  143.6903  163.7878 C.ar    1  UNL1        0.0380
     11 C         143.1078  143.2827  164.9742 C.ar    1  UNL1        0.0145
     12 C         142.4574  142.5913  166.1357 C.ar    1  UNL1        0.0578
     13 CL        143.2798  142.1837  167.3221 Cl      1  UNL1       -0.0822
     14 O         139.9904  143.8142  162.5764 O.3     1  UNL1       -0.4045
     15 C         138.5797  144.2863  162.7682 C.3     1  UNL1        0.5753
     16 F         137.1688  144.7583  162.9600 F       1  UNL1       -0.1328
     17 F         138.0817  143.1282  161.9554 F       1  UNL1       -0.1328
     18 F         139.0777  145.4444  163.5810 F       1  UNL1       -0.1328
     19 O         138.3832  139.5422  170.7567 O.3     1  UNL1       -0.4755
     20 C         136.9219  139.7448  171.0276 C.3     1  UNL1        0.2058
     21 C         135.9865  138.5723  171.0115 C.3     1  UNL1        0.0532
     22 C         135.4860  137.9944  172.3022 C.3     1  UNL1        0.0455
     23 O         137.2602  136.1031  172.1432 O.co2   1  UNL1       -0.5492
     24 C         136.1249  136.7616  172.8696 C.2     1  UNL1        0.0505
     25 O         135.6286  136.1872  174.1633 O.co2   1  UNL1       -0.5492
@<TRIPOS>UNITY_ATOM_ATTR
23 1
charge -1
@<TRIPOS>BOND
     1    23    24   ar
     2    24    25   ar
     3    24    22    1
     4    22    21    1
     5    21    20    1
     6    20    19    1
     7    19     1    1
     8     1     2   ar
     9     2     3   ar
    10     3     4   ar
    11     4     7    1
    12     7     8   ar
    13     8     9   ar
    14     9    14    1
    15    14    15    1
    16    15    16    1
    17    15    17    1
    18    15    18    1
    19     9    10   ar
    20    10    11   ar
    21    11    12   ar
    22    12    13    1
    23     4     5   ar
    24     5     6   ar
    25     6     1   ar
    26    12     7   ar
@<TRIPOS>MOLECULE
*****
 25 26 0 0 0
SMALL
GASTEIGER

@<TRIPOS>ATOM
      1 C         142.8099  140.0810  167.9088 C.ar    1  UNL1        0.1386
      2 C         142.9303  141.5757  167.8693 C.ar    1  UNL1        0.0369
      3 C         143.0281  142.2856  166.5515 C.ar    1  UNL1        0.0031
      4 C         143.0055  141.5009  165.2734 C.ar    1  UNL1        0.0011
      5 C         142.8852  140.0063  165.3129 C.ar    1  UNL1        0.0031
      6 C         142.7874  139.2964  166.6307 C.ar    1  UNL1        0.0369
      7 C         143.1034  142.2109  163.9556 C.ar    1  UNL1        0.0136
      8 C         141.8701  142.7734  163.3134 C.ar    1  UNL1        0.0380
      9 C         141.9679  143.4833  161.9957 C.ar    1  UNL1        0.1469
     10 C         143.2990  143.6307  161.3202 C.ar    1  UNL1        0.0380
     11 C         144.5323  143.0682  161.9624 C.ar    1  UNL1        0.0145
     12 C         144.4345  142.3582  163.2801 C.ar    1  UNL1        0.0578
     13 CL        145.6679  141.7957  163.9223 Cl      1  UNL1       -0.0822
     14 O         140.7345  144.0459  161.3535 O.3     1  UNL1       -0.4045
     15 C         139.6127  144.5599  162.2063 C.3     1  UNL1        0.5753
     16 F         138.4908  145.0738  163.0592 F       1  UNL1       -0.1328
     17 F         138.8126  143.3298  161.8952 F       1  UNL1       -0.1328
     18 F         140.4128  145.7899  162.5174 F       1  UNL1       -0.1328
     19 O         142.7121  139.3711  169.2266 O.3     1  UNL1       -0.4755
     20 C         141.8332  139.9203  170.3109 C.3     1  UNL1        0.2058
     21 C         140.3622  140.0887  170.0708 C.3     1  UNL1        0.0532
     22 C         139.7978  141.4518  169.7993 C.3     1  UNL1        0.0455
     23 O         140.0301  143.9958  170.2729 O.co2   1  UNL1       -0.5492
     24 C         140.0598  142.5763  170.7569 C.2     1  UNL1        0.0505
     25 O         140.3513  142.2813  172.1984 O.co2   1  UNL1       -0.5492
@<TRIPOS>UNITY_ATOM_ATTR
23 1
charge -1
@<TRIPOS>BOND
     1    23    24   ar
     2    24    25   ar
     3    24    22    1
     4    22    21    1
     5    21    20    1
     6    20    19    1
     7    19     1    1
     8     1     2   ar
     9     2     3   ar
    10     3     4   ar
    11     4     7    1
    12     7     8   ar
    13     8     9   ar
    14     9    14    1
    15    14    15    1
    16    15    16    1
    17    15    17    1
    18    15    18    1
    19     9    10   ar
    20    10    11   ar
    21    11    12   ar
    22    12    13    1
    23     4     5   ar
    24     5     6   ar
    25     6     1   ar
    26    12     7   ar
@<TRIPOS>MOLECULE
*****
 25 26 0 0 0
SMALL
GASTEIGER

@<TRIPOS>ATOM
      1 C         142.1223  139.2823  167.2544 C.ar    1  UNL1        0.1386
      2 C         140.7301  139.7899  167.4865 C.ar    1  UNL1        0.0369
      3 C         139.8303  140.0718  166.3199 C.ar    1  UNL1        0.0031
      4 C         140.3228  139.8460  164.9212 C.ar    1  UNL1        0.0011
      5 C         141.7150  139.3384  164.6891 C.ar    1  UNL1        0.0031
      6 C         142.6148  139.0565  165.8557 C.ar    1  UNL1        0.0369
      7 C         139.4230  140.1278  163.7546 C.ar    1  UNL1        0.0136
      8 C         139.2024  141.5407  163.3017 C.ar    1  UNL1        0.0380
      9 C         138.3026  141.8225  162.1351 C.ar    1  UNL1        0.1469
     10 C         137.6235  140.6915  161.4214 C.ar    1  UNL1        0.0380
     11 C         137.8441  139.2786  161.8742 C.ar    1  UNL1        0.0145
     12 C         138.7439  138.9968  163.0408 C.ar    1  UNL1        0.0578
     13 CL        138.9644  137.5838  163.4937 Cl      1  UNL1       -0.0822
     14 O         138.0820  143.2354  161.6822 O.3     1  UNL1       -0.4045
     15 C         138.6054  144.3765  162.5032 C.3     1  UNL1        0.5753
     16 F         139.1288  145.5176  163.3242 F       1  UNL1       -0.1328
     17 F         139.8636  144.3869  161.6867 F       1  UNL1       -0.1328
     18 F         137.3472  144.3661  163.3198 F       1  UNL1       -0.1328
     19 O         143.0221  139.0005  168.4210 O.3     1  UNL1       -0.4755
     20 C         142.5625  139.3105  169.8147 C.3     1  UNL1        0.2058
     21 C         142.6178  140.7193  170.3268 C.3     1  UNL1        0.0532
     22 C         143.3577  141.7700  169.5530 C.3     1  UNL1        0.0455
     23 O         142.9635  143.8904  171.0018 O.co2   1  UNL1       -0.5492
     24 C         143.8951  142.9807  170.2569 C.2     1  UNL1        0.0505
     25 O         145.3640  143.2817  170.2160 O.co2   1  UNL1       -0.5492
@<TRIPOS>UNITY_ATOM_ATTR
23 1
charge -1
@<TRIPOS>BOND
     1    23    24   ar
     2    24    25   ar
     3    24    22    1
     4    22    21    1
     5    21    20    1
     6    20    19    1
     7    19     1    1
     8     1     2   ar
     9     2     3   ar
    10     3     4   ar
    11     4     7    1
    12     7     8   ar
    13     8     9   ar
    14     9    14    1
    15    14    15    1
    16    15    16    1
    17    15    17    1
    18    15    18    1
    19     9    10   ar
    20    10    11   ar
    21    11    12   ar
    22    12    13    1
    23     4     5   ar
    24     5     6   ar
    25     6     1   ar
    26    12     7   ar
