@<TRIPOS>MOLECULE
*****
 34 37 0 0 0
SMALL
GASTEIGER

@<TRIPOS>ATOM
      1 N         140.8834  138.3948  164.0511 N.3     1  UNL1       -0.2653
      2 C         140.5864  139.0195  162.7201 C.3     1  UNL1        0.1036
      3 C         141.4594  140.1215  162.1973 C.3     1  UNL1        0.1470
      4 C         142.3324  141.2236  161.6745 C.3     1  UNL1        0.1035
      5 N         143.5025  141.7009  162.4826 N.3     1  UNL1       -0.2673
      6 C         143.7995  141.0761  163.8137 C.3     1  UNL1        0.1035
      7 C         142.9265  139.9741  164.3364 C.3     1  UNL1        0.1470
      8 C         142.0535  138.8721  164.8592 C.3     1  UNL1        0.1036
      9 O         142.6294  140.5988  163.0055 O.3     1  UNL1       -0.3530
     10 C         140.0104  137.2927  164.5739 C.3     1  UNL1        0.1202
     11 C         138.8167  137.6195  165.4214 C.3     1  UNL1        0.2228
     12 O         138.3478  139.0394  165.5408 O.3     1  UNL1       -0.4717
     13 C         140.3371  141.8280  168.4591 C.ar    1  UNL1        0.0709
     14 C         139.6588  140.5845  168.9530 C.ar    1  UNL1        0.0135
     15 C         138.9957  139.6550  167.9803 C.ar    1  UNL1        0.0399
     16 C         139.0109  139.9689  166.5136 C.ar    1  UNL1        0.1659
     17 C         139.6891  141.2122  166.0196 C.ar    1  UNL1        0.1745
     18 F         139.7042  141.5260  164.5529 F       1  UNL1       -0.2009
     19 C         140.3522  142.1418  166.9924 C.ar    1  UNL1        0.0430
     20 N         141.6633  143.6870  170.4046 N.1     1  UNL1       -0.1908
     21 C         141.0002  142.7575  169.4318 C.1     1  UNL1        0.1005
     22 C         144.3755  142.8029  161.9599 C.3     1  UNL1        0.0913
     23 C         144.3285  144.1617  162.5936 C.3     1  UNL1        0.1087
     24 N         143.2281  145.1172  162.2385 N.3     1  UNL1       -0.1780
     25 H         143.2165  145.1879  161.2211 H       1  UNL1        0.1488
     26 S         141.8197  144.8324  162.6689 S.O2    1  UNL1        0.0603
     27 O         142.2697  144.7669  164.0983 O.2     1  UNL1       -0.1530
     28 O         141.3696  144.8980  161.2395 O.2     1  UNL1       -0.1530
     29 C         140.4112  144.5477  163.0992 C.ar    1  UNL1        0.1219
     30 C         139.4521  143.8993  162.1454 C.ar    1  UNL1        0.0199
     31 C         138.0437  143.6145  162.5756 C.ar    1  UNL1        0.0014
     32 C         137.5943  143.9781  163.9597 C.ar    1  UNL1        0.0001
     33 C         138.5534  144.6265  164.9136 C.ar    1  UNL1        0.0014
     34 C         139.9618  144.9112  164.4833 C.ar    1  UNL1        0.0199
@<TRIPOS>BOND
     1    20    21    3
     2    21    13    1
     3    13    14   ar
     4    14    15   ar
     5    15    16   ar
     6    16    12    1
     7    12    11    1
     8    11    10    1
     9    10     1    1
    10     1     2    1
    11     2     3    1
    12     3     4    1
    13     4     5    1
    14     5    22    1
    15    22    23    1
    16    23    24    1
    17    24    26    1
    18    26    27    2
    19    26    28    2
    20    26    29    1
    21    29    30   ar
    22    30    31   ar
    23    31    32   ar
    24    32    33   ar
    25    33    34   ar
    26     5     6    1
    27     6     7    1
    28     7     8    1
    29     7     9    1
    30    16    17   ar
    31    17    18    1
    32    17    19   ar
    33    19    13   ar
    34     8     1    1
    35     9     3    1
    36    34    29   ar
    37    24    25    1
@<TRIPOS>MOLECULE
*****
 34 37 0 0 0
SMALL
GASTEIGER

@<TRIPOS>ATOM
      1 N         141.6000  144.4618  161.5878 N.3     1  UNL1       -0.2653
      2 C         142.1727  144.7372  162.9465 C.3     1  UNL1        0.1036
      3 C         143.1330  143.7661  163.5665 C.3     1  UNL1        0.1470
      4 C         144.0934  142.7948  164.1867 C.3     1  UNL1        0.1035
      5 N         144.4810  141.5482  163.4481 N.3     1  UNL1       -0.2673
      6 C         143.9083  141.2727  162.0893 C.3     1  UNL1        0.1035
      7 C         142.9480  142.2439  161.4692 C.3     1  UNL1        0.1470
      8 C         141.9877  143.2151  160.8491 C.3     1  UNL1        0.1036
      9 O         143.5206  142.5194  162.8279 O.3     1  UNL1       -0.3530
     10 C         140.6396  145.4330  160.9676 C.3     1  UNL1        0.1202
     11 C         139.6366  146.1467  161.8246 C.3     1  UNL1        0.2228
     12 O         138.3255  145.4932  162.1472 O.3     1  UNL1       -0.4717
     13 C         138.2517  141.5012  164.2229 C.ar    1  UNL1        0.0709
     14 C         137.8307  141.6079  162.7871 C.ar    1  UNL1        0.0135
     15 C         137.8553  142.9385  162.0952 C.ar    1  UNL1        0.0399
     16 C         138.3009  144.1625  162.8391 C.ar    1  UNL1        0.1659
     17 C         138.7219  144.0559  164.2748 C.ar    1  UNL1        0.1745
     18 F         139.1674  145.2799  165.0186 F       1  UNL1       -0.2009
     19 C         138.6973  142.7252  164.9668 C.ar    1  UNL1        0.0430
     20 N         138.2025  138.8400  165.6067 N.1     1  UNL1       -0.1908
     21 C         138.2271  140.1706  164.9148 C.1     1  UNL1        0.1005
     22 C         145.4414  140.5770  164.0681 C.3     1  UNL1        0.0913
     23 C         144.9354  139.2916  164.6528 C.3     1  UNL1        0.1087
     24 N         143.4599  139.0607  164.7926 N.3     1  UNL1       -0.1780
     25 H         143.2935  138.0785  164.5736 H       1  UNL1        0.1488
     26 S         142.7786  139.3342  166.1006 S.O2    1  UNL1        0.0603
     27 O         141.8043  140.2374  165.4042 O.2     1  UNL1       -0.1530
     28 O         143.7529  138.4310  166.7969 O.2     1  UNL1       -0.1530
     29 C         142.0973  139.6078  167.4087 C.ar    1  UNL1        0.1219
     30 C         140.8078  140.3735  167.4370 C.ar    1  UNL1        0.0199
     31 C         140.1265  140.6471  168.7450 C.ar    1  UNL1        0.0014
     32 C         140.7347  140.1548  170.0247 C.ar    1  UNL1        0.0001
     33 C         142.0242  139.3890  169.9964 C.ar    1  UNL1        0.0014
     34 C         142.7055  139.1155  168.6884 C.ar    1  UNL1        0.0199
@<TRIPOS>BOND
     1    20    21    3
     2    21    13    1
     3    13    14   ar
     4    14    15   ar
     5    15    16   ar
     6    16    12    1
     7    12    11    1
     8    11    10    1
     9    10     1    1
    10     1     2    1
    11     2     3    1
    12     3     4    1
    13     4     5    1
    14     5    22    1
    15    22    23    1
    16    23    24    1
    17    24    26    1
    18    26    27    2
    19    26    28    2
    20    26    29    1
    21    29    30   ar
    22    30    31   ar
    23    31    32   ar
    24    32    33   ar
    25    33    34   ar
    26     5     6    1
    27     6     7    1
    28     7     8    1
    29     7     9    1
    30    16    17   ar
    31    17    18    1
    32    17    19   ar
    33    19    13   ar
    34     8     1    1
    35     9     3    1
    36    34    29   ar
    37    24    25    1
@<TRIPOS>MOLECULE
*****
 34 37 0 0 0
SMALL
GASTEIGER

@<TRIPOS>ATOM
      1 N         139.2983  139.0702  162.9276 N.3     1  UNL1       -0.2653
      2 C         140.2927  139.1339  161.8065 C.3     1  UNL1        0.1036
      3 C         140.4375  140.3923  161.0031 C.3     1  UNL1        0.1470
      4 C         140.5824  141.6507  160.1996 C.3     1  UNL1        0.1035
      5 N         139.7328  142.8453  160.5174 N.3     1  UNL1       -0.2673
      6 C         138.7383  142.7815  161.6386 C.3     1  UNL1        0.1035
      7 C         138.5934  141.5232  162.4419 C.3     1  UNL1        0.1470
      8 C         138.4486  140.2648  163.2453 C.3     1  UNL1        0.1036
      9 O         139.5879  141.5869  161.3208 O.3     1  UNL1       -0.3530
     10 C         139.1534  137.8117  163.7310 C.3     1  UNL1        0.1202
     11 C         140.1631  137.4766  164.7884 C.3     1  UNL1        0.2228
     12 O         141.2010  138.4860  165.1813 O.3     1  UNL1       -0.4717
     13 C         140.9017  140.5950  169.1451 C.ar    1  UNL1        0.0709
     14 C         139.6892  140.4642  168.2717 C.ar    1  UNL1        0.0135
     15 C         139.7890  139.7612  166.9504 C.ar    1  UNL1        0.0399
     16 C         141.1012  139.1889  166.5025 C.ar    1  UNL1        0.1659
     17 C         142.3136  139.3197  167.3759 C.ar    1  UNL1        0.1745
     18 F         143.6259  138.7475  166.9280 F       1  UNL1       -0.2009
     19 C         142.2139  140.0227  168.6972 C.ar    1  UNL1        0.0430
     20 N         140.7021  142.0010  171.7877 N.1     1  UNL1       -0.1908
     21 C         140.8019  141.2980  170.4664 C.1     1  UNL1        0.1005
     22 C         139.8776  144.1037  159.7140 C.3     1  UNL1        0.0913
     23 C         140.4396  145.3399  160.3512 C.3     1  UNL1        0.1087
     24 N         141.8526  145.3482  160.8544 N.3     1  UNL1       -0.1780
     25 H         142.1222  146.3263  160.9589 H       1  UNL1        0.1488
     26 S         142.1930  144.6648  162.1455 S.O2    1  UNL1        0.0603
     27 O         141.0616  145.3802  162.8224 O.2     1  UNL1       -0.1530
     28 O         143.3243  143.9495  161.4687 O.2     1  UNL1       -0.1530
     29 C         142.5334  143.9814  163.4368 C.ar    1  UNL1        0.1219
     30 C         141.4557  143.3147  164.2392 C.ar    1  UNL1        0.0199
     31 C         141.7960  142.6313  165.5304 C.ar    1  UNL1        0.0014
     32 C         143.2140  142.6147  166.0191 C.ar    1  UNL1        0.0001
     33 C         144.2917  143.2814  165.2166 C.ar    1  UNL1        0.0014
     34 C         143.9514  143.9648  163.9254 C.ar    1  UNL1        0.0199
@<TRIPOS>BOND
     1    20    21    3
     2    21    13    1
     3    13    14   ar
     4    14    15   ar
     5    15    16   ar
     6    16    12    1
     7    12    11    1
     8    11    10    1
     9    10     1    1
    10     1     2    1
    11     2     3    1
    12     3     4    1
    13     4     5    1
    14     5    22    1
    15    22    23    1
    16    23    24    1
    17    24    26    1
    18    26    27    2
    19    26    28    2
    20    26    29    1
    21    29    30   ar
    22    30    31   ar
    23    31    32   ar
    24    32    33   ar
    25    33    34   ar
    26     5     6    1
    27     6     7    1
    28     7     8    1
    29     7     9    1
    30    16    17   ar
    31    17    18    1
    32    17    19   ar
    33    19    13   ar
    34     8     1    1
    35     9     3    1
    36    34    29   ar
    37    24    25    1
@<TRIPOS>MOLECULE
*****
 34 37 0 0 0
SMALL
GASTEIGER

@<TRIPOS>ATOM
      1 N         138.4627  140.2761  165.2102 N.3     1  UNL1       -0.2653
      2 C         137.7636  140.5904  163.9208 C.3     1  UNL1        0.1036
      3 C         138.0293  141.8903  163.2212 C.3     1  UNL1        0.1470
      4 C         138.2949  143.1903  162.5215 C.3     1  UNL1        0.1035
      5 N         139.2597  144.1760  163.1112 N.3     1  UNL1       -0.2673
      6 C         139.9588  143.8616  164.4006 C.3     1  UNL1        0.1035
      7 C         139.6931  142.5617  165.1002 C.3     1  UNL1        0.1470
      8 C         139.4275  141.2617  165.7999 C.3     1  UNL1        0.1036
      9 O         138.9940  142.8760  163.8109 O.3     1  UNL1       -0.3530
     10 C         138.1971  138.9761  165.9099 C.3     1  UNL1        0.1202
     11 C         138.8521  137.7164  165.4260 C.3     1  UNL1        0.2228
     12 O         138.6305  137.2489  164.0180 O.3     1  UNL1       -0.4717
     13 C         141.6046  138.2927  160.8063 C.ar    1  UNL1        0.0709
     14 C         142.0817  137.7736  162.1303 C.ar    1  UNL1        0.0135
     15 C         141.0904  137.4257  163.2008 C.ar    1  UNL1        0.0399
     16 C         139.6219  137.5968  162.9475 C.ar    1  UNL1        0.1659
     17 C         139.1447  138.1159  161.6236 C.ar    1  UNL1        0.1745
     18 F         137.6762  138.2871  161.3702 F       1  UNL1       -0.2009
     19 C         140.1361  138.4639  160.5529 C.ar    1  UNL1        0.0430
     20 N         143.5872  138.9886  158.6651 N.1     1  UNL1       -0.1908
     21 C         142.5959  138.6406  159.7357 C.1     1  UNL1        0.1005
     22 C         139.5253  145.4759  162.4116 C.3     1  UNL1        0.0913
     23 C         140.9321  145.8719  162.0735 C.3     1  UNL1        0.1087
     24 N         141.7686  144.9906  161.1941 N.3     1  UNL1       -0.1780
     25 H         142.3689  145.6064  160.6457 H       1  UNL1        0.1488
     26 S         142.6591  143.9497  161.8052 S.O2    1  UNL1        0.0603
     27 O         141.8613  142.8722  161.1325 O.2     1  UNL1       -0.1530
     28 O         143.4569  145.0271  162.4779 O.2     1  UNL1       -0.1530
     29 C         143.5497  142.9088  162.4164 C.ar    1  UNL1        0.1219
     30 C         143.6542  141.5497  161.7901 C.ar    1  UNL1        0.0199
     31 C         144.5447  140.5088  162.4012 C.ar    1  UNL1        0.0014
     32 C         145.3307  140.8269  163.6386 C.ar    1  UNL1        0.0001
     33 C         145.2261  142.1859  164.2648 C.ar    1  UNL1        0.0014
     34 C         144.3356  143.2268  163.6537 C.ar    1  UNL1        0.0199
@<TRIPOS>BOND
     1    20    21    3
     2    21    13    1
     3    13    14   ar
     4    14    15   ar
     5    15    16   ar
     6    16    12    1
     7    12    11    1
     8    11    10    1
     9    10     1    1
    10     1     2    1
    11     2     3    1
    12     3     4    1
    13     4     5    1
    14     5    22    1
    15    22    23    1
    16    23    24    1
    17    24    26    1
    18    26    27    2
    19    26    28    2
    20    26    29    1
    21    29    30   ar
    22    30    31   ar
    23    31    32   ar
    24    32    33   ar
    25    33    34   ar
    26     5     6    1
    27     6     7    1
    28     7     8    1
    29     7     9    1
    30    16    17   ar
    31    17    18    1
    32    17    19   ar
    33    19    13   ar
    34     8     1    1
    35     9     3    1
    36    34    29   ar
    37    24    25    1
@<TRIPOS>MOLECULE
*****
 34 37 0 0 0
SMALL
GASTEIGER

@<TRIPOS>ATOM
      1 N         142.2166  139.2186  162.8055 N.3     1  UNL1       -0.2653
      2 C         141.1719  139.2967  161.7321 C.3     1  UNL1        0.1036
      3 C         141.2284  140.3921  160.7089 C.3     1  UNL1        0.1470
      4 C         141.2849  141.4875  159.6857 C.3     1  UNL1        0.1035
      5 N         142.3861  142.5048  159.7360 N.3     1  UNL1       -0.2673
      6 C         143.4309  142.4266  160.8096 C.3     1  UNL1        0.1035
      7 C         143.3743  141.3312  161.8327 C.3     1  UNL1        0.1470
      8 C         143.3178  140.2358  162.8559 C.3     1  UNL1        0.1036
      9 O         142.3296  141.4093  160.7592 O.3     1  UNL1       -0.3530
     10 C         142.1601  138.1231  163.8288 C.3     1  UNL1        0.1202
     11 C         142.0155  138.4618  165.2828 C.3     1  UNL1        0.2228
     12 O         140.6840  138.8912  165.8241 O.3     1  UNL1       -0.4717
     13 C         140.4099  142.4548  168.5583 C.ar    1  UNL1        0.0709
     14 C         140.3378  141.0676  169.1246 C.ar    1  UNL1        0.0135
     15 C         140.4292  139.8798  168.2132 C.ar    1  UNL1        0.0399
     16 C         140.5927  140.0790  166.7355 C.ar    1  UNL1        0.1659
     17 C         140.6647  141.4661  166.1692 C.ar    1  UNL1        0.1745
     18 F         140.8282  141.6654  164.6915 F       1  UNL1       -0.2009
     19 C         140.5734  142.6541  167.0806 C.ar    1  UNL1        0.0430
     20 N         140.2272  144.8305  170.3810 N.1     1  UNL1       -0.1908
     21 C         140.3185  143.6426  169.4696 C.1     1  UNL1        0.1005
     22 C         142.4426  143.6002  158.7129 C.3     1  UNL1        0.0913
     23 C         141.6588  144.8621  158.9210 C.3     1  UNL1        0.1087
     24 N         141.6128  145.5013  160.2772 N.3     1  UNL1       -0.1780
     25 H         141.3855  146.4849  160.1315 H       1  UNL1        0.1488
     26 S         140.6622  144.9866  161.3170 S.O2    1  UNL1        0.0603
     27 O         141.7683  144.9907  162.3302 O.2     1  UNL1       -0.1530
     28 O         139.5562  144.9825  160.3039 O.2     1  UNL1       -0.1530
     29 C         139.7115  144.4718  162.3569 C.ar    1  UNL1        0.1219
     30 C         139.6262  145.1456  163.6943 C.ar    1  UNL1        0.0199
     31 C         138.6756  144.6309  164.7342 C.ar    1  UNL1        0.0014
     32 C         137.8103  143.4424  164.4366 C.ar    1  UNL1        0.0001
     33 C         137.8956  142.7686  163.0992 C.ar    1  UNL1        0.0014
     34 C         138.8462  143.2833  162.0593 C.ar    1  UNL1        0.0199
@<TRIPOS>BOND
     1    20    21    3
     2    21    13    1
     3    13    14   ar
     4    14    15   ar
     5    15    16   ar
     6    16    12    1
     7    12    11    1
     8    11    10    1
     9    10     1    1
    10     1     2    1
    11     2     3    1
    12     3     4    1
    13     4     5    1
    14     5    22    1
    15    22    23    1
    16    23    24    1
    17    24    26    1
    18    26    27    2
    19    26    28    2
    20    26    29    1
    21    29    30   ar
    22    30    31   ar
    23    31    32   ar
    24    32    33   ar
    25    33    34   ar
    26     5     6    1
    27     6     7    1
    28     7     8    1
    29     7     9    1
    30    16    17   ar
    31    17    18    1
    32    17    19   ar
    33    19    13   ar
    34     8     1    1
    35     9     3    1
    36    34    29   ar
    37    24    25    1
@<TRIPOS>MOLECULE
*****
 34 37 0 0 0
SMALL
GASTEIGER

@<TRIPOS>ATOM
      1 N         139.3672  139.2031  160.6991 N.3     1  UNL1       -0.2653
      2 C         140.8141  139.5541  160.5171 C.3     1  UNL1        0.1036
      3 C         141.1953  140.8311  159.8288 C.3     1  UNL1        0.1470
      4 C         141.5765  142.1083  159.1405 C.3     1  UNL1        0.1035
      5 N         140.5107  143.0344  158.6342 N.3     1  UNL1       -0.2673
      6 C         139.0637  142.6834  158.8162 C.3     1  UNL1        0.1035
      7 C         138.6825  141.4064  159.5045 C.3     1  UNL1        0.1470
      8 C         138.3014  140.1293  160.1927 C.3     1  UNL1        0.1036
      9 O         140.1295  141.7573  159.3225 O.3     1  UNL1       -0.3530
     10 C         138.9860  137.9260  161.3874 C.3     1  UNL1        0.1202
     11 C         138.5293  137.9514  162.8159 C.3     1  UNL1        0.2228
     12 O         138.1421  139.2513  163.4566 O.3     1  UNL1       -0.4717
     13 C         139.5773  140.2290  167.6080 C.ar    1  UNL1        0.0709
     14 C         138.5146  139.1896  167.4072 C.ar    1  UNL1        0.0135
     15 C         138.0362  138.8637  166.0234 C.ar    1  UNL1        0.0399
     16 C         138.6205  139.5771  164.8404 C.ar    1  UNL1        0.1659
     17 C         139.6832  140.6165  165.0412 C.ar    1  UNL1        0.1745
     18 F         140.2675  141.3300  163.8581 F       1  UNL1       -0.2009
     19 C         140.1617  140.9424  166.4250 C.ar    1  UNL1        0.0430
     20 N         140.5341  140.8807  170.3756 N.1     1  UNL1       -0.1908
     21 C         140.0557  140.5548  168.9918 C.1     1  UNL1        0.1005
     22 C         140.8919  144.3115  157.9459 C.3     1  UNL1        0.0913
     23 C         140.9782  145.5884  158.7284 C.3     1  UNL1        0.1087
     24 N         141.5228  145.5762  160.1259 N.3     1  UNL1       -0.1780
     25 H         141.8298  146.5272  160.3306 H       1  UNL1        0.1488
     26 S         140.6491  145.1482  161.2676 S.O2    1  UNL1        0.0603
     27 O         141.7509  144.2696  161.7813 O.2     1  UNL1       -0.1530
     28 O         139.5472  146.0267  160.7538 O.2     1  UNL1       -0.1530
     29 C         139.7753  144.7201  162.4092 C.ar    1  UNL1        0.1219
     30 C         140.1483  145.0829  163.8161 C.ar    1  UNL1        0.0199
     31 C         139.2746  144.6549  164.9578 C.ar    1  UNL1        0.0014
     32 C         138.0279  143.8641  164.6925 C.ar    1  UNL1        0.0001
     33 C         137.6550  143.5012  163.2857 C.ar    1  UNL1        0.0014
     34 C         138.5286  143.9293  162.1440 C.ar    1  UNL1        0.0199
@<TRIPOS>BOND
     1    20    21    3
     2    21    13    1
     3    13    14   ar
     4    14    15   ar
     5    15    16   ar
     6    16    12    1
     7    12    11    1
     8    11    10    1
     9    10     1    1
    10     1     2    1
    11     2     3    1
    12     3     4    1
    13     4     5    1
    14     5    22    1
    15    22    23    1
    16    23    24    1
    17    24    26    1
    18    26    27    2
    19    26    28    2
    20    26    29    1
    21    29    30   ar
    22    30    31   ar
    23    31    32   ar
    24    32    33   ar
    25    33    34   ar
    26     5     6    1
    27     6     7    1
    28     7     8    1
    29     7     9    1
    30    16    17   ar
    31    17    18    1
    32    17    19   ar
    33    19    13   ar
    34     8     1    1
    35     9     3    1
    36    34    29   ar
    37    24    25    1
@<TRIPOS>MOLECULE
*****
 34 37 0 0 0
SMALL
GASTEIGER

@<TRIPOS>ATOM
      1 N         141.8539  139.8701  166.7027 N.3     1  UNL1       -0.2653
      2 C         140.3647  139.8512  166.8810 C.3     1  UNL1        0.1036
      3 C         139.4813  139.3853  165.7619 C.3     1  UNL1        0.1470
      4 C         138.5977  138.9195  164.6427 C.3     1  UNL1        0.1035
      5 N         139.2035  138.4726  163.3453 N.3     1  UNL1       -0.2673
      6 C         140.6928  138.4915  163.1670 C.3     1  UNL1        0.1035
      7 C         141.5763  138.9574  164.2862 C.3     1  UNL1        0.1470
      8 C         142.4597  139.4232  165.4053 C.3     1  UNL1        0.1036
      9 O         140.0871  138.9384  164.4645 O.3     1  UNL1       -0.3530
     10 C         142.7374  140.3360  167.8219 C.3     1  UNL1        0.1202
     11 C         142.7591  141.7857  168.2065 C.3     1  UNL1        0.2228
     12 O         143.6615  142.7404  167.4824 O.3     1  UNL1       -0.4717
     13 C         143.3566  143.1745  163.0138 C.ar    1  UNL1        0.0709
     14 C         144.6966  142.9776  163.6586 C.ar    1  UNL1        0.0135
     15 C         144.7983  142.8329  165.1481 C.ar    1  UNL1        0.0399
     16 C         143.5599  142.8851  165.9929 C.ar    1  UNL1        0.1659
     17 C         142.2199  143.0819  165.3482 C.ar    1  UNL1        0.1745
     18 F         140.9815  143.1341  166.1931 F       1  UNL1       -0.2009
     19 C         142.1183  143.2266  163.8586 C.ar    1  UNL1        0.0430
     20 N         143.1534  143.4638  160.0348 N.1     1  UNL1       -0.1908
     21 C         143.2550  143.3192  161.5243 C.1     1  UNL1        0.1005
     22 C         138.3201  138.0067  162.2262 C.3     1  UNL1        0.0913
     23 C         137.9351  138.9554  161.1299 C.3     1  UNL1        0.1087
     24 N         137.0883  140.1544  161.4386 N.3     1  UNL1       -0.1780
     25 H         136.5321  139.9183  162.2603 H       1  UNL1        0.1488
     26 S         137.7361  141.4777  161.7197 S.O2    1  UNL1        0.0603
     27 O         138.5114  141.3701  160.4401 O.2     1  UNL1       -0.1530
     28 O         136.9609  141.5854  162.9992 O.2     1  UNL1       -0.1530
     29 C         138.3839  142.8012  162.0008 C.ar    1  UNL1        0.1219
     30 C         139.2842  143.4279  160.9778 C.ar    1  UNL1        0.0199
     31 C         139.9319  144.7513  161.2589 C.ar    1  UNL1        0.0014
     32 C         139.6795  145.4479  162.5631 C.ar    1  UNL1        0.0001
     33 C         138.7792  144.8211  163.5862 C.ar    1  UNL1        0.0014
     34 C         138.1315  143.4977  163.3050 C.ar    1  UNL1        0.0199
@<TRIPOS>BOND
     1    20    21    3
     2    21    13    1
     3    13    14   ar
     4    14    15   ar
     5    15    16   ar
     6    16    12    1
     7    12    11    1
     8    11    10    1
     9    10     1    1
    10     1     2    1
    11     2     3    1
    12     3     4    1
    13     4     5    1
    14     5    22    1
    15    22    23    1
    16    23    24    1
    17    24    26    1
    18    26    27    2
    19    26    28    2
    20    26    29    1
    21    29    30   ar
    22    30    31   ar
    23    31    32   ar
    24    32    33   ar
    25    33    34   ar
    26     5     6    1
    27     6     7    1
    28     7     8    1
    29     7     9    1
    30    16    17   ar
    31    17    18    1
    32    17    19   ar
    33    19    13   ar
    34     8     1    1
    35     9     3    1
    36    34    29   ar
    37    24    25    1
@<TRIPOS>MOLECULE
*****
 34 37 0 0 0
SMALL
GASTEIGER

@<TRIPOS>ATOM
      1 N         139.4713  137.8466  164.4660 N.3     1  UNL1       -0.2653
      2 C         140.9412  137.5907  164.6203 C.3     1  UNL1        0.1036
      3 C         141.8655  137.8031  163.4583 C.3     1  UNL1        0.1470
      4 C         142.7899  138.0155  162.2962 C.3     1  UNL1        0.1035
      5 N         142.2444  138.4839  160.9797 N.3     1  UNL1       -0.2673
      6 C         140.7744  138.7398  160.8254 C.3     1  UNL1        0.1035
      7 C         139.8501  138.5274  161.9875 C.3     1  UNL1        0.1470
      8 C         138.9258  138.3150  163.1495 C.3     1  UNL1        0.1036
      9 O         141.3200  138.2715  162.1418 O.3     1  UNL1       -0.3530
     10 C         138.5469  137.6342  165.6281 C.3     1  UNL1        0.1202
     11 C         138.0034  138.8132  166.3793 C.3     1  UNL1        0.2228
     12 O         138.1719  138.8968  167.8676 O.3     1  UNL1       -0.4717
     13 C         141.1439  141.7752  169.6373 C.ar    1  UNL1        0.0709
     14 C         141.4126  141.1460  168.3024 C.ar    1  UNL1        0.0135
     15 C         140.4219  140.1865  167.7125 C.ar    1  UNL1        0.0399
     16 C         139.1626  139.8563  168.4574 C.ar    1  UNL1        0.1659
     17 C         138.8939  140.4854  169.7923 C.ar    1  UNL1        0.1745
     18 F         137.6346  140.1552  170.5373 F       1  UNL1       -0.2009
     19 C         139.8846  141.4450  170.3823 C.ar    1  UNL1        0.0430
     20 N         143.1253  143.6941  170.8171 N.1     1  UNL1       -0.1908
     21 C         142.1346  142.7347  170.2272 C.1     1  UNL1        0.1005
     22 C         143.1687  138.6963  159.8177 C.3     1  UNL1        0.0913
     23 C         143.2680  140.0483  159.1756 C.3     1  UNL1        0.1087
     24 N         144.0862  141.1270  159.8214 N.3     1  UNL1       -0.1780
     25 H         144.0039  141.9534  159.2292 H       1  UNL1        0.1488
     26 S         143.7774  141.5656  161.2221 S.O2    1  UNL1        0.0603
     27 O         145.0730  140.9742  161.6929 O.2     1  UNL1       -0.1530
     28 O         142.4818  142.1569  160.7514 O.2     1  UNL1       -0.1530
     29 C         143.4685  142.0042  162.6230 C.ar    1  UNL1        0.1219
     30 C         142.1738  141.6037  163.2660 C.ar    1  UNL1        0.0199
     31 C         141.8649  142.0423  164.6668 C.ar    1  UNL1        0.0014
     32 C         142.8507  142.8813  165.4245 C.ar    1  UNL1        0.0001
     33 C         144.1454  143.2817  164.7815 C.ar    1  UNL1        0.0014
     34 C         144.4543  142.8432  163.3808 C.ar    1  UNL1        0.0199
@<TRIPOS>BOND
     1    20    21    3
     2    21    13    1
     3    13    14   ar
     4    14    15   ar
     5    15    16   ar
     6    16    12    1
     7    12    11    1
     8    11    10    1
     9    10     1    1
    10     1     2    1
    11     2     3    1
    12     3     4    1
    13     4     5    1
    14     5    22    1
    15    22    23    1
    16    23    24    1
    17    24    26    1
    18    26    27    2
    19    26    28    2
    20    26    29    1
    21    29    30   ar
    22    30    31   ar
    23    31    32   ar
    24    32    33   ar
    25    33    34   ar
    26     5     6    1
    27     6     7    1
    28     7     8    1
    29     7     9    1
    30    16    17   ar
    31    17    18    1
    32    17    19   ar
    33    19    13   ar
    34     8     1    1
    35     9     3    1
    36    34    29   ar
    37    24    25    1
@<TRIPOS>MOLECULE
*****
 34 37 0 0 0
SMALL
GASTEIGER

@<TRIPOS>ATOM
      1 N         144.3212  140.0770  163.4801 N.3     1  UNL1       -0.2653
      2 C         144.6183  141.5467  163.5219 C.3     1  UNL1        0.1036
      3 C         144.1994  142.4291  162.3837 C.3     1  UNL1        0.1470
      4 C         143.7805  143.3117  161.2453 C.3     1  UNL1        0.1035
      5 N         143.0645  142.7245  160.0652 N.3     1  UNL1       -0.2673
      6 C         142.7675  141.2548  160.0234 C.3     1  UNL1        0.1035
      7 C         143.1864  140.3723  161.1617 C.3     1  UNL1        0.1470
      8 C         143.6053  139.4898  162.3000 C.3     1  UNL1        0.1036
      9 O         143.4834  141.8420  161.2035 O.3     1  UNL1       -0.3530
     10 C         144.7401  139.1944  164.6184 C.3     1  UNL1        0.1202
     11 C         143.7376  138.7801  165.6544 C.3     1  UNL1        0.2228
     12 O         142.3280  139.2877  165.5794 O.3     1  UNL1       -0.4717
     13 C         140.9319  142.4808  168.4263 C.ar    1  UNL1        0.0709
     14 C         140.8005  142.6860  166.9462 C.ar    1  UNL1        0.0135
     15 C         141.2658  141.6216  165.9972 C.ar    1  UNL1        0.0399
     16 C         141.8627  140.3521  166.5283 C.ar    1  UNL1        0.1659
     17 C         141.9941  140.1469  168.0084 C.ar    1  UNL1        0.1745
     18 F         142.5909  138.8773  168.5395 F       1  UNL1       -0.2009
     19 C         141.5287  141.2113  168.9574 C.ar    1  UNL1        0.0430
     20 N         140.0011  144.6095  170.3242 N.1     1  UNL1       -0.1908
     21 C         140.4665  143.5452  169.3752 C.1     1  UNL1        0.1005
     22 C         142.6457  143.6070  158.9270 C.3     1  UNL1        0.0913
     23 C         141.2244  144.0758  158.8251 C.3     1  UNL1        0.1087
     24 N         140.7053  145.1093  159.7802 N.3     1  UNL1       -0.1780
     25 H         140.0681  145.7052  159.2516 H       1  UNL1        0.1488
     26 S         139.9739  144.6853  161.0193 S.O2    1  UNL1        0.0603
     27 O         140.7762  145.6619  161.8270 O.2     1  UNL1       -0.1530
     28 O         139.1716  143.7087  160.2115 O.2     1  UNL1       -0.1530
     29 C         139.2425  144.2612  162.2584 C.ar    1  UNL1        0.1219
     30 C         139.4026  145.0432  163.5284 C.ar    1  UNL1        0.0199
     31 C         138.6713  144.6192  164.7675 C.ar    1  UNL1        0.0014
     32 C         137.7799  143.4132  164.7365 C.ar    1  UNL1        0.0001
     33 C         137.6198  142.6313  163.4665 C.ar    1  UNL1        0.0014
     34 C         138.3511  143.0553  162.2274 C.ar    1  UNL1        0.0199
@<TRIPOS>BOND
     1    20    21    3
     2    21    13    1
     3    13    14   ar
     4    14    15   ar
     5    15    16   ar
     6    16    12    1
     7    12    11    1
     8    11    10    1
     9    10     1    1
    10     1     2    1
    11     2     3    1
    12     3     4    1
    13     4     5    1
    14     5    22    1
    15    22    23    1
    16    23    24    1
    17    24    26    1
    18    26    27    2
    19    26    28    2
    20    26    29    1
    21    29    30   ar
    22    30    31   ar
    23    31    32   ar
    24    32    33   ar
    25    33    34   ar
    26     5     6    1
    27     6     7    1
    28     7     8    1
    29     7     9    1
    30    16    17   ar
    31    17    18    1
    32    17    19   ar
    33    19    13   ar
    34     8     1    1
    35     9     3    1
    36    34    29   ar
    37    24    25    1
