@<TRIPOS>MOLECULE
*****
 25 29 0 0 0
SMALL
GASTEIGER

@<TRIPOS>ATOM
      1 C         139.9916  144.9390  160.6800 C.ar    1  UNL1        0.1726
      2 C         140.8491  145.6892  161.6556 C.ar    1  UNL1        0.0401
      3 C         141.0241  145.1721  163.0528 C.ar    1  UNL1        0.0037
      4 C         140.3415  143.9047  163.4743 C.ar    1  UNL1        0.0150
      5 C         140.5164  143.3875  164.8714 C.ar    1  UNL1        0.0695
      6 C         139.8338  142.1200  165.2929 C.ar    1  UNL1        0.2260
      7 N         138.9763  141.3698  164.3173 N.ar    1  UNL1       -0.1641
      8 C         138.8014  141.8870  162.9202 C.ar    1  UNL1        0.2929
      9 C         139.4840  143.1544  162.4987 C.ar    1  UNL1        0.1068
     10 C         139.3090  143.6715  161.1016 C.ar    1  UNL1        0.1782
     11 C         138.2937  140.1023  164.7389 C.3     1  UNL1        0.3269
     12 C         138.4686  139.5851  166.1360 C.3     1  UNL1        0.1119
     13 C         139.3262  140.3355  167.1116 C.ar    1  UNL1       -0.0062
     14 C         139.5011  139.8183  168.5087 C.ar    1  UNL1        0.0363
     15 C         140.3586  140.5685  169.4843 C.ar    1  UNL1        0.1761
     16 C         141.0412  141.8360  169.0628 C.ar    1  UNL1        0.1766
     17 C         140.8663  142.3532  167.6657 C.ar    1  UNL1        0.0458
     18 C         140.0087  141.6028  166.6901 C.ar    1  UNL1        0.0630
     19 O         141.8191  142.3556  170.2353 O.3     1  UNL1       -0.4346
     20 C         141.6172  141.4094  171.3815 C.3     1  UNL1        0.4294
     21 O         140.7146  140.3049  170.9174 O.3     1  UNL1       -0.4346
     22 C         140.9846  145.4851  158.3421 C.3     1  UNL1        0.2526
     23 O         139.8167  145.4562  159.2829 O.3     1  UNL1       -0.4684
     24 O         138.4515  142.9213  160.1260 O.3     1  UNL1       -0.4682
     25 C         139.0838  141.9983  159.1269 C.3     1  UNL1        0.2526
@<TRIPOS>UNITY_ATOM_ATTR
7 1
charge 1
@<TRIPOS>BOND
     1    22    23    1
     2    23     1    1
     3     1     2   ar
     4     2     3   ar
     5     3     4   ar
     6     4     5   ar
     7     5     6   ar
     8     6     7   ar
     9     7     8   ar
    10     8     9   ar
    11     9    10   ar
    12    10    24    1
    13    24    25    1
    14     7    11    1
    15    11    12    1
    16    12    13    1
    17    13    14   ar
    18    14    15   ar
    19    15    16   ar
    20    16    17   ar
    21    17    18   ar
    22    16    19    1
    23    19    20    1
    24    20    21    1
    25    10     1   ar
    26    18    13   ar
    27     9     4   ar
    28    21    15    1
    29    18     6    1
@<TRIPOS>MOLECULE
*****
 25 29 0 0 0
SMALL
GASTEIGER

@<TRIPOS>ATOM
      1 C         142.9112  138.4870  159.7869 C.ar    1  UNL1        0.1726
      2 C         144.1329  138.6604  160.6399 C.ar    1  UNL1        0.0401
      3 C         143.9903  138.9202  162.1104 C.ar    1  UNL1        0.0037
      4 C         142.6260  139.0066  162.7279 C.ar    1  UNL1        0.0150
      5 C         142.4833  139.2663  164.1983 C.ar    1  UNL1        0.0695
      6 C         141.1190  139.3527  164.8157 C.ar    1  UNL1        0.2260
      7 N         139.8974  139.1793  163.9628 N.ar    1  UNL1       -0.1641
      8 C         140.0400  138.9195  162.4923 C.ar    1  UNL1        0.2929
      9 C         141.4044  138.8332  161.8749 C.ar    1  UNL1        0.1068
     10 C         141.5469  138.5734  160.4045 C.ar    1  UNL1        0.1782
     11 C         138.5331  139.2656  164.5803 C.3     1  UNL1        0.3269
     12 C         138.3904  139.5254  166.0507 C.3     1  UNL1        0.1119
     13 C         139.6121  139.6988  166.9037 C.ar    1  UNL1       -0.0062
     14 C         139.4694  139.9586  168.3741 C.ar    1  UNL1        0.0363
     15 C         140.6910  140.1320  169.2270 C.ar    1  UNL1        0.1761
     16 C         142.0553  140.0457  168.6096 C.ar    1  UNL1        0.1766
     17 C         142.1980  139.7859  167.1392 C.ar    1  UNL1        0.0458
     18 C         140.9763  139.6125  166.2862 C.ar    1  UNL1        0.0630
     19 O         143.0694  140.2568  169.6945 O.3     1  UNL1       -0.4346
     20 C         142.3318  140.4737  170.9825 C.3     1  UNL1        0.4294
     21 O         140.8619  140.3966  170.6936 O.3     1  UNL1       -0.4346
     22 C         143.2220  139.3746  157.3651 C.3     1  UNL1        0.2526
     23 O         143.0539  138.2273  158.3165 O.3     1  UNL1       -0.4684
     24 O         140.3253  138.4000  159.5515 O.3     1  UNL1       -0.4682
     25 C         139.7726  139.5663  158.7872 C.3     1  UNL1        0.2526
@<TRIPOS>UNITY_ATOM_ATTR
7 1
charge 1
@<TRIPOS>BOND
     1    22    23    1
     2    23     1    1
     3     1     2   ar
     4     2     3   ar
     5     3     4   ar
     6     4     5   ar
     7     5     6   ar
     8     6     7   ar
     9     7     8   ar
    10     8     9   ar
    11     9    10   ar
    12    10    24    1
    13    24    25    1
    14     7    11    1
    15    11    12    1
    16    12    13    1
    17    13    14   ar
    18    14    15   ar
    19    15    16   ar
    20    16    17   ar
    21    17    18   ar
    22    16    19    1
    23    19    20    1
    24    20    21    1
    25    10     1   ar
    26    18    13   ar
    27     9     4   ar
    28    21    15    1
    29    18     6    1
@<TRIPOS>MOLECULE
*****
 25 29 0 0 0
SMALL
GASTEIGER

@<TRIPOS>ATOM
      1 C         141.1965  145.1839  160.5362 C.ar    1  UNL1        0.1726
      2 C         140.1542  145.6241  161.5210 C.ar    1  UNL1        0.0401
      3 C         140.0297  144.9269  162.8433 C.ar    1  UNL1        0.0037
      4 C         140.9475  143.7895  163.1808 C.ar    1  UNL1        0.0150
      5 C         140.8230  143.0923  164.5031 C.ar    1  UNL1        0.0695
      6 C         141.7409  141.9549  164.8405 C.ar    1  UNL1        0.2260
      7 N         142.7832  141.5147  163.8558 N.ar    1  UNL1       -0.1641
      8 C         142.9077  142.2119  162.5335 C.ar    1  UNL1        0.2929
      9 C         141.9898  143.3493  162.1960 C.ar    1  UNL1        0.1068
     10 C         142.1143  144.0464  160.8738 C.ar    1  UNL1        0.1782
     11 C         143.7010  140.3772  164.1933 C.3     1  UNL1        0.3269
     12 C         143.5765  139.6800  165.5156 C.3     1  UNL1        0.1119
     13 C         142.5342  140.1203  166.5004 C.ar    1  UNL1       -0.0062
     14 C         142.4097  139.4231  167.8226 C.ar    1  UNL1        0.0363
     15 C         141.3674  139.8632  168.8074 C.ar    1  UNL1        0.1761
     16 C         140.4495  141.0007  168.4699 C.ar    1  UNL1        0.1766
     17 C         140.5740  141.6979  167.1477 C.ar    1  UNL1        0.0458
     18 C         141.6164  141.2576  166.1629 C.ar    1  UNL1        0.0630
     19 O         139.5252  141.2110  169.6324 O.3     1  UNL1       -0.4346
     20 C         139.8718  140.2036  170.6883 C.3     1  UNL1        0.4294
     21 O         141.0103  139.3707  170.1785 O.3     1  UNL1       -0.4346
     22 C         140.4031  145.5171  158.0848 C.3     1  UNL1        0.2526
     23 O         141.3210  145.8811  159.2140 O.3     1  UNL1       -0.4684
     24 O         143.1567  143.6062  159.8890 O.3     1  UNL1       -0.4682
     25 C         142.7918  142.6608  158.7831 C.3     1  UNL1        0.2526
@<TRIPOS>UNITY_ATOM_ATTR
7 1
charge 1
@<TRIPOS>BOND
     1    22    23    1
     2    23     1    1
     3     1     2   ar
     4     2     3   ar
     5     3     4   ar
     6     4     5   ar
     7     5     6   ar
     8     6     7   ar
     9     7     8   ar
    10     8     9   ar
    11     9    10   ar
    12    10    24    1
    13    24    25    1
    14     7    11    1
    15    11    12    1
    16    12    13    1
    17    13    14   ar
    18    14    15   ar
    19    15    16   ar
    20    16    17   ar
    21    17    18   ar
    22    16    19    1
    23    19    20    1
    24    20    21    1
    25    10     1   ar
    26    18    13   ar
    27     9     4   ar
    28    21    15    1
    29    18     6    1
@<TRIPOS>MOLECULE
*****
 25 29 0 0 0
SMALL
GASTEIGER

@<TRIPOS>ATOM
      1 C         139.6223  140.2589  168.3094 C.ar    1  UNL1        0.1726
      2 C         138.8447  139.3885  167.3672 C.ar    1  UNL1        0.0401
      3 C         138.7304  139.7650  165.9197 C.ar    1  UNL1        0.0037
      4 C         139.3937  141.0119  165.4144 C.ar    1  UNL1        0.0150
      5 C         139.2794  141.3884  163.9670 C.ar    1  UNL1        0.0695
      6 C         139.9428  142.6353  163.4617 C.ar    1  UNL1        0.2260
      7 N         140.7204  143.5056  164.4040 N.ar    1  UNL1       -0.1641
      8 C         140.8346  143.1291  165.8514 C.ar    1  UNL1        0.2929
      9 C         140.1713  141.8822  166.3567 C.ar    1  UNL1        0.1068
     10 C         140.2856  141.5058  167.8041 C.ar    1  UNL1        0.1782
     11 C         141.3837  144.7525  163.8986 C.3     1  UNL1        0.3269
     12 C         141.2694  145.1291  162.4512 C.3     1  UNL1        0.1119
     13 C         140.4918  144.2586  161.5090 C.ar    1  UNL1       -0.0062
     14 C         140.3775  144.6352  160.0615 C.ar    1  UNL1        0.0363
     15 C         139.5999  143.7648  159.1193 C.ar    1  UNL1        0.1761
     16 C         138.9366  142.5179  159.6245 C.ar    1  UNL1        0.1766
     17 C         139.0508  142.1414  161.0720 C.ar    1  UNL1        0.0458
     18 C         139.8285  143.0118  162.0142 C.ar    1  UNL1        0.0630
     19 O         138.2418  141.8614  158.4685 O.3     1  UNL1       -0.4346
     20 C         138.4758  142.7026  157.2488 C.3     1  UNL1        0.4294
     21 O         139.3151  143.8790  157.6510 O.3     1  UNL1       -0.4346
     22 C         141.0709  139.5093  170.3317 C.3     1  UNL1        0.2526
     23 O         139.7366  139.8823  169.7569 O.3     1  UNL1       -0.4684
     24 O         141.0632  142.3761  168.7463 O.3     1  UNL1       -0.4682
     25 C         140.3503  143.3866  169.5952 C.3     1  UNL1        0.2526
@<TRIPOS>UNITY_ATOM_ATTR
7 1
charge 1
@<TRIPOS>BOND
     1    22    23    1
     2    23     1    1
     3     1     2   ar
     4     2     3   ar
     5     3     4   ar
     6     4     5   ar
     7     5     6   ar
     8     6     7   ar
     9     7     8   ar
    10     8     9   ar
    11     9    10   ar
    12    10    24    1
    13    24    25    1
    14     7    11    1
    15    11    12    1
    16    12    13    1
    17    13    14   ar
    18    14    15   ar
    19    15    16   ar
    20    16    17   ar
    21    17    18   ar
    22    16    19    1
    23    19    20    1
    24    20    21    1
    25    10     1   ar
    26    18    13   ar
    27     9     4   ar
    28    21    15    1
    29    18     6    1
@<TRIPOS>MOLECULE
*****
 25 29 0 0 0
SMALL
GASTEIGER

@<TRIPOS>ATOM
      1 C         141.9545  140.0426  168.2690 C.ar    1  UNL1        0.1726
      2 C         142.9412  139.5879  167.2347 C.ar    1  UNL1        0.0401
      3 C         142.9673  140.2411  165.8846 C.ar    1  UNL1        0.0037
      4 C         142.0066  141.3489  165.5688 C.ar    1  UNL1        0.0150
      5 C         142.0325  142.0021  164.2187 C.ar    1  UNL1        0.0695
      6 C         141.0718  143.1099  163.9029 C.ar    1  UNL1        0.2260
      7 N         140.0851  143.5646  164.9372 N.ar    1  UNL1       -0.1641
      8 C         140.0591  142.9114  166.2872 C.ar    1  UNL1        0.2929
      9 C         141.0199  141.8035  166.6030 C.ar    1  UNL1        0.1068
     10 C         140.9938  141.1504  167.9531 C.ar    1  UNL1        0.1782
     11 C         139.1244  144.6724  164.6213 C.3     1  UNL1        0.3269
     12 C         139.1504  145.3256  163.2712 C.3     1  UNL1        0.1119
     13 C         140.1371  144.8709  162.2370 C.ar    1  UNL1       -0.0062
     14 C         140.1631  145.5240  160.8869 C.ar    1  UNL1        0.0363
     15 C         141.1498  145.0694  159.8527 C.ar    1  UNL1        0.1761
     16 C         142.1105  143.9615  160.1685 C.ar    1  UNL1        0.1766
     17 C         142.0846  143.3084  161.5185 C.ar    1  UNL1        0.0458
     18 C         141.0978  143.7631  162.5528 C.ar    1  UNL1        0.0630
     19 O         142.9635  143.7282  158.9569 O.3     1  UNL1       -0.4346
     20 C         142.5299  144.6918  157.8922 C.3     1  UNL1        0.4294
     21 O         141.4090  145.5207  158.4458 O.3     1  UNL1       -0.4346
     22 C         142.8354  139.8815  170.7079 C.3     1  UNL1        0.2526
     23 O         141.9286  139.3894  169.6191 O.3     1  UNL1       -0.4684
     24 O         140.0071  141.6051  168.9874 O.3     1  UNL1       -0.4682
     25 C         140.3820  142.6859  169.9576 C.3     1  UNL1        0.2526
@<TRIPOS>UNITY_ATOM_ATTR
7 1
charge 1
@<TRIPOS>BOND
     1    22    23    1
     2    23     1    1
     3     1     2   ar
     4     2     3   ar
     5     3     4   ar
     6     4     5   ar
     7     5     6   ar
     8     6     7   ar
     9     7     8   ar
    10     8     9   ar
    11     9    10   ar
    12    10    24    1
    13    24    25    1
    14     7    11    1
    15    11    12    1
    16    12    13    1
    17    13    14   ar
    18    14    15   ar
    19    15    16   ar
    20    16    17   ar
    21    17    18   ar
    22    16    19    1
    23    19    20    1
    24    20    21    1
    25    10     1   ar
    26    18    13   ar
    27     9     4   ar
    28    21    15    1
    29    18     6    1
@<TRIPOS>MOLECULE
*****
 25 29 0 0 0
SMALL
GASTEIGER

@<TRIPOS>ATOM
      1 C         140.5289  142.1623  169.2998 C.ar    1  UNL1        0.1726
      2 C         140.3959  143.3709  168.4215 C.ar    1  UNL1        0.0401
      3 C         140.0629  143.2088  166.9678 C.ar    1  UNL1        0.0037
      4 C         139.8630  141.8379  166.3926 C.ar    1  UNL1        0.0150
      5 C         139.5301  141.6757  164.9391 C.ar    1  UNL1        0.0695
      6 C         139.3302  140.3048  164.3639 C.ar    1  UNL1        0.2260
      7 N         139.4632  139.0962  165.2423 N.ar    1  UNL1       -0.1641
      8 C         139.7962  139.2584  166.6958 C.ar    1  UNL1        0.2929
      9 C         139.9961  140.6293  167.2710 C.ar    1  UNL1        0.1068
     10 C         140.3290  140.7914  168.7245 C.ar    1  UNL1        0.1782
     11 C         139.2633  137.7254  164.6670 C.3     1  UNL1        0.3269
     12 C         138.9303  137.5631  163.2135 C.3     1  UNL1        0.1119
     13 C         138.7973  138.7718  162.3351 C.ar    1  UNL1       -0.0062
     14 C         138.4644  138.6096  160.8816 C.ar    1  UNL1        0.0363
     15 C         138.3313  139.8182  160.0032 C.ar    1  UNL1        0.1761
     16 C         138.5312  141.1891  160.5784 C.ar    1  UNL1        0.1766
     17 C         138.8642  141.3513  162.0319 C.ar    1  UNL1        0.0458
     18 C         138.9972  140.1426  162.9103 C.ar    1  UNL1        0.0630
     19 O         138.3372  142.1873  159.4757 O.3     1  UNL1       -0.4346
     20 C         138.0173  141.4334  158.2190 C.3     1  UNL1        0.4294
     21 O         138.0137  139.9692  158.5450 O.3     1  UNL1       -0.4346
     22 C         142.2925  142.4542  171.1852 C.3     1  UNL1        0.2526
     23 O         140.8619  142.3245  170.7534 O.3     1  UNL1       -0.4684
     24 O         140.4620  139.5828  169.6029 O.3     1  UNL1       -0.4682
     25 C         141.8224  139.0660  169.9664 C.3     1  UNL1        0.2526
@<TRIPOS>UNITY_ATOM_ATTR
7 1
charge 1
@<TRIPOS>BOND
     1    22    23    1
     2    23     1    1
     3     1     2   ar
     4     2     3   ar
     5     3     4   ar
     6     4     5   ar
     7     5     6   ar
     8     6     7   ar
     9     7     8   ar
    10     8     9   ar
    11     9    10   ar
    12    10    24    1
    13    24    25    1
    14     7    11    1
    15    11    12    1
    16    12    13    1
    17    13    14   ar
    18    14    15   ar
    19    15    16   ar
    20    16    17   ar
    21    17    18   ar
    22    16    19    1
    23    19    20    1
    24    20    21    1
    25    10     1   ar
    26    18    13   ar
    27     9     4   ar
    28    21    15    1
    29    18     6    1
@<TRIPOS>MOLECULE
*****
 25 29 0 0 0
SMALL
GASTEIGER

@<TRIPOS>ATOM
      1 C         138.6570  139.5682  160.6064 C.ar    1  UNL1        0.1726
      2 C         137.6963  140.3893  161.4144 C.ar    1  UNL1        0.0401
      3 C         137.9753  140.6604  162.8631 C.ar    1  UNL1        0.0037
      4 C         139.2151  140.1103  163.5038 C.ar    1  UNL1        0.0150
      5 C         139.4942  140.3814  164.9524 C.ar    1  UNL1        0.0695
      6 C         140.7340  139.8313  165.5930 C.ar    1  UNL1        0.2260
      7 N         141.6947  139.0102  164.7850 N.ar    1  UNL1       -0.1641
      8 C         141.4155  138.7392  163.3364 C.ar    1  UNL1        0.2929
      9 C         140.1758  139.2893  162.6957 C.ar    1  UNL1        0.1068
     10 C         139.8967  139.0182  161.2471 C.ar    1  UNL1        0.1782
     11 C         142.9344  138.4602  165.4257 C.3     1  UNL1        0.3269
     12 C         143.2136  138.7312  166.8744 C.3     1  UNL1        0.1119
     13 C         142.2528  139.5523  167.6824 C.ar    1  UNL1       -0.0062
     14 C         142.5319  139.8233  169.1311 C.ar    1  UNL1        0.0363
     15 C         141.5713  140.6444  169.9391 C.ar    1  UNL1        0.1761
     16 C         140.3315  141.1945  169.2985 C.ar    1  UNL1        0.1766
     17 C         140.0524  140.9235  167.8498 C.ar    1  UNL1        0.0458
     18 C         141.0131  140.1023  167.0418 C.ar    1  UNL1        0.0630
     19 O         139.5741  141.9642  170.3396 O.3     1  UNL1       -0.4346
     20 C         140.3458  141.8898  171.6237 C.3     1  UNL1        0.4294
     21 O         141.5801  141.0741  171.3762 O.3     1  UNL1       -0.4346
     22 C         138.6333  140.3621  158.1327 C.3     1  UNL1        0.2526
     23 O         138.3778  139.2972  159.1577 O.3     1  UNL1       -0.4684
     24 O         140.8574  138.1971  160.4391 O.3     1  UNL1       -0.4682
     25 C         141.8887  138.8737  159.5854 C.3     1  UNL1        0.2526
@<TRIPOS>UNITY_ATOM_ATTR
7 1
charge 1
@<TRIPOS>BOND
     1    22    23    1
     2    23     1    1
     3     1     2   ar
     4     2     3   ar
     5     3     4   ar
     6     4     5   ar
     7     5     6   ar
     8     6     7   ar
     9     7     8   ar
    10     8     9   ar
    11     9    10   ar
    12    10    24    1
    13    24    25    1
    14     7    11    1
    15    11    12    1
    16    12    13    1
    17    13    14   ar
    18    14    15   ar
    19    15    16   ar
    20    16    17   ar
    21    17    18   ar
    22    16    19    1
    23    19    20    1
    24    20    21    1
    25    10     1   ar
    26    18    13   ar
    27     9     4   ar
    28    21    15    1
    29    18     6    1
@<TRIPOS>MOLECULE
*****
 25 29 0 0 0
SMALL
GASTEIGER

@<TRIPOS>ATOM
      1 C         142.0698  141.0308  168.9228 C.ar    1  UNL1        0.1726
      2 C         143.1217  141.9006  168.3008 C.ar    1  UNL1        0.0401
      3 C         142.9441  142.4072  166.9000 C.ar    1  UNL1        0.0037
      4 C         141.7145  142.0438  166.1214 C.ar    1  UNL1        0.0150
      5 C         141.5368  142.5503  164.7208 C.ar    1  UNL1        0.0695
      6 C         140.3073  142.1870  163.9422 C.ar    1  UNL1        0.2260
      7 N         139.2554  141.3172  164.5643 N.ar    1  UNL1       -0.1641
      8 C         139.4331  140.8107  165.9649 C.ar    1  UNL1        0.2929
      9 C         140.6626  141.1740  166.7435 C.ar    1  UNL1        0.1068
     10 C         140.8402  140.6675  168.1442 C.ar    1  UNL1        0.1782
     11 C         138.0259  140.9539  163.7856 C.3     1  UNL1        0.3269
     12 C         137.8482  141.4603  162.3849 C.3     1  UNL1        0.1119
     13 C         138.9001  142.3301  161.7629 C.ar    1  UNL1       -0.0062
     14 C         138.7224  142.8366  160.3622 C.ar    1  UNL1        0.0363
     15 C         139.7743  143.7064  159.7401 C.ar    1  UNL1        0.1761
     16 C         141.0039  144.0697  160.5187 C.ar    1  UNL1        0.1766
     17 C         141.1815  143.5633  161.9193 C.ar    1  UNL1        0.0458
     18 C         140.1296  142.6935  162.5414 C.ar    1  UNL1        0.0630
     19 O         141.8639  144.9377  159.6486 O.3     1  UNL1       -0.4346
     20 C         141.1658  145.1108  158.3323 C.3     1  UNL1        0.4294
     21 O         139.8744  144.3498  158.3888 O.3     1  UNL1       -0.4346
     22 C         141.8420  141.3795  171.4873 C.3     1  UNL1        0.2526
     23 O         142.2475  140.5244  170.3235 O.3     1  UNL1       -0.4684
     24 O         139.7884  139.7977  168.7663 O.3     1  UNL1       -0.4682
     25 C         138.8156  140.3823  169.7471 C.3     1  UNL1        0.2526
@<TRIPOS>UNITY_ATOM_ATTR
7 1
charge 1
@<TRIPOS>BOND
     1    22    23    1
     2    23     1    1
     3     1     2   ar
     4     2     3   ar
     5     3     4   ar
     6     4     5   ar
     7     5     6   ar
     8     6     7   ar
     9     7     8   ar
    10     8     9   ar
    11     9    10   ar
    12    10    24    1
    13    24    25    1
    14     7    11    1
    15    11    12    1
    16    12    13    1
    17    13    14   ar
    18    14    15   ar
    19    15    16   ar
    20    16    17   ar
    21    17    18   ar
    22    16    19    1
    23    19    20    1
    24    20    21    1
    25    10     1   ar
    26    18    13   ar
    27     9     4   ar
    28    21    15    1
    29    18     6    1
@<TRIPOS>MOLECULE
*****
 25 29 0 0 0
SMALL
GASTEIGER

@<TRIPOS>ATOM
      1 C         143.2269  138.9674  160.0222 C.ar    1  UNL1        0.1726
      2 C         143.8750  138.1095  161.0681 C.ar    1  UNL1        0.0401
      3 C         143.6737  138.4185  162.5221 C.ar    1  UNL1        0.0037
      4 C         142.8241  139.5855  162.9301 C.ar    1  UNL1        0.0150
      5 C         142.6227  139.8946  164.3840 C.ar    1  UNL1        0.0695
      6 C         141.7731  141.0616  164.7920 C.ar    1  UNL1        0.2260
      7 N         141.1250  141.9195  163.7460 N.ar    1  UNL1       -0.1641
      8 C         141.3265  141.6104  162.2921 C.ar    1  UNL1        0.2929
      9 C         142.1760  140.4434  161.8842 C.ar    1  UNL1        0.1068
     10 C         142.3774  140.1344  160.4302 C.ar    1  UNL1        0.1782
     11 C         140.2755  143.0864  164.1541 C.3     1  UNL1        0.3269
     12 C         140.0740  143.3955  165.6080 C.3     1  UNL1        0.1119
     13 C         140.7222  142.5376  166.6540 C.ar    1  UNL1       -0.0062
     14 C         140.5208  142.8467  168.1079 C.ar    1  UNL1        0.0363
     15 C         141.1689  141.9888  169.1538 C.ar    1  UNL1        0.1761
     16 C         142.0184  140.8218  168.7458 C.ar    1  UNL1        0.1766
     17 C         142.2199  140.5127  167.2919 C.ar    1  UNL1        0.0458
     18 C         141.5717  141.3707  166.2460 C.ar    1  UNL1        0.0630
     19 O         142.5262  140.1598  169.9923 O.3     1  UNL1       -0.4346
     20 C         141.9905  140.9176  171.1707 C.3     1  UNL1        0.4294
     21 O         141.1516  142.0480  170.6525 O.3     1  UNL1       -0.4346
     22 C         142.6680  137.5350  157.9279 C.3     1  UNL1        0.2526
     23 O         143.4284  138.6583  158.5682 O.3     1  UNL1       -0.4684
     24 O         141.7293  140.9923  159.3843 O.3     1  UNL1       -0.4682
     25 C         142.5031  142.1053  158.7422 C.3     1  UNL1        0.2526
@<TRIPOS>UNITY_ATOM_ATTR
7 1
charge 1
@<TRIPOS>BOND
     1    22    23    1
     2    23     1    1
     3     1     2   ar
     4     2     3   ar
     5     3     4   ar
     6     4     5   ar
     7     5     6   ar
     8     6     7   ar
     9     7     8   ar
    10     8     9   ar
    11     9    10   ar
    12    10    24    1
    13    24    25    1
    14     7    11    1
    15    11    12    1
    16    12    13    1
    17    13    14   ar
    18    14    15   ar
    19    15    16   ar
    20    16    17   ar
    21    17    18   ar
    22    16    19    1
    23    19    20    1
    24    20    21    1
    25    10     1   ar
    26    18    13   ar
    27     9     4   ar
    28    21    15    1
    29    18     6    1
