@<TRIPOS>MOLECULE
*****
 28 30 0 0 0
SMALL
GASTEIGER

@<TRIPOS>ATOM
      1 N         142.1522  143.6064  161.9439 N.3     1  UNL1       -0.2682
      2 C         142.8880  144.2870  163.0599 C.3     1  UNL1        0.0897
      3 C         143.1937  143.5382  164.3231 C.3     1  UNL1        0.0899
      4 N         142.7636  142.1088  164.4704 N.3     1  UNL1       -0.2665
      5 C         142.0279  141.4281  163.3545 C.3     1  UNL1        0.0899
      6 C         141.7222  142.1769  162.0912 C.3     1  UNL1        0.0897
      7 C         141.8465  144.3551  160.6806 C.3     1  UNL1        0.1056
      8 O         139.6563  144.4809  159.2889 O.3     1  UNL1       -0.3793
      9 C         140.4780  144.9286  160.4612 C.3     1  UNL1        0.1700
     10 H         138.8050  144.9457  159.2944 H       1  UNL1        0.2106
     11 C         139.9311  145.9498  161.4142 C.3     1  UNL1        0.2358
     12 O         138.6804  145.6583  162.1893 O.3     1  UNL1       -0.4728
     13 C         138.5999  144.4323  163.0498 C.ar    1  UNL1        0.1388
     14 C         139.3420  144.3802  164.3523 C.ar    1  UNL1        0.0392
     15 C         139.2615  143.1542  165.2128 C.ar    1  UNL1        0.0327
     16 C         138.4388  141.9804  164.7708 C.ar    1  UNL1        0.1403
     17 F         138.3583  140.7543  165.6313 F       1  UNL1       -0.2042
     18 C         137.6966  142.0325  163.4683 C.ar    1  UNL1        0.0327
     19 C         137.7772  143.2585  162.6078 C.ar    1  UNL1        0.0392
     20 C         143.0693  141.3600  165.7337 C.3     1  UNL1        0.0992
     21 C         142.0524  141.2999  166.8348 C.ar    1  UNL1       -0.0052
     22 C         141.3250  140.0183  167.1148 C.ar    1  UNL1       -0.0020
     23 C         140.3081  139.9582  168.2158 C.ar    1  UNL1        0.0120
     24 C         140.0185  141.1797  169.0368 C.ar    1  UNL1        0.0682
     25 CL        139.0016  141.1196  170.1378 Cl      1  UNL1       -0.0814
     26 C         140.7459  142.4613  168.7568 C.ar    1  UNL1        0.0679
     27 CL        140.4564  143.6828  169.5778 Cl      1  UNL1       -0.0814
     28 C         141.7629  142.5214  167.6558 C.ar    1  UNL1        0.0093
@<TRIPOS>BOND
     1     9     8    1
     2     9    11    1
     3    11    12    1
     4    12    13    1
     5    13    14   ar
     6    14    15   ar
     7    15    16   ar
     8    16    17    1
     9    16    18   ar
    10    18    19   ar
    11     9     7    1
    12     7     1    1
    13     1     2    1
    14     2     3    1
    15     3     4    1
    16     4    20    1
    17    20    21    1
    18    21    22   ar
    19    22    23   ar
    20    23    24   ar
    21    24    25    1
    22    24    26   ar
    23    26    27    1
    24    26    28   ar
    25     4     5    1
    26     5     6    1
    27    19    13   ar
    28     6     1    1
    29    28    21   ar
    30     8    10    1
@<TRIPOS>MOLECULE
*****
 28 30 0 0 0
SMALL
GASTEIGER

@<TRIPOS>ATOM
      1 N         140.5167  139.3498  160.0378 N.3     1  UNL1       -0.2682
      2 C         140.6923  140.6978  160.6721 C.3     1  UNL1        0.0897
      3 C         139.8420  141.0920  161.8432 C.3     1  UNL1        0.0899
      4 N         138.8161  140.1385  162.3800 N.3     1  UNL1       -0.2665
      5 C         138.6404  138.7906  161.7457 C.3     1  UNL1        0.0899
      6 C         139.4907  138.3963  160.5745 C.3     1  UNL1        0.0897
      7 C         141.3670  138.9556  158.8667 C.3     1  UNL1        0.1056
      8 O         143.0731  137.2855  157.8421 O.3     1  UNL1       -0.3793
      9 C         142.4647  137.9486  159.0422 C.3     1  UNL1        0.1700
     10 H         143.7630  136.6670  158.1295 H       1  UNL1        0.2106
     11 C         142.9541  137.6046  160.4178 C.3     1  UNL1        0.2358
     12 O         143.5986  138.6576  161.2697 O.3     1  UNL1       -0.4728
     13 C         143.3203  138.7045  162.7430 C.ar    1  UNL1        0.1388
     14 C         144.3365  139.2868  163.6800 C.ar    1  UNL1        0.0392
     15 C         144.0582  139.3337  165.1532 C.ar    1  UNL1        0.0327
     16 C         142.7638  138.7981  165.6893 C.ar    1  UNL1        0.1403
     17 F         142.4855  138.8449  167.1626 F       1  UNL1       -0.2042
     18 C         141.7475  138.2157  164.7523 C.ar    1  UNL1        0.0327
     19 C         142.0258  138.1689  163.2791 C.ar    1  UNL1        0.0392
     20 C         137.9657  140.5327  163.5511 C.3     1  UNL1        0.0992
     21 C         138.5023  140.4010  164.9457 C.ar    1  UNL1       -0.0052
     22 C         138.0610  139.2605  165.8144 C.ar    1  UNL1       -0.0020
     23 C         138.5975  139.1287  167.2089 C.ar    1  UNL1        0.0120
     24 C         139.5753  140.1374  167.7348 C.ar    1  UNL1        0.0682
     25 CL        140.1117  140.0055  169.1294 Cl      1  UNL1       -0.0814
     26 C         140.0166  141.2778  166.8661 C.ar    1  UNL1        0.0679
     27 CL        140.9943  142.2865  167.3920 Cl      1  UNL1       -0.0814
     28 C         139.4800  141.4096  165.4715 C.ar    1  UNL1        0.0093
@<TRIPOS>BOND
     1     9     8    1
     2     9    11    1
     3    11    12    1
     4    12    13    1
     5    13    14   ar
     6    14    15   ar
     7    15    16   ar
     8    16    17    1
     9    16    18   ar
    10    18    19   ar
    11     9     7    1
    12     7     1    1
    13     1     2    1
    14     2     3    1
    15     3     4    1
    16     4    20    1
    17    20    21    1
    18    21    22   ar
    19    22    23   ar
    20    23    24   ar
    21    24    25    1
    22    24    26   ar
    23    26    27    1
    24    26    28   ar
    25     4     5    1
    26     5     6    1
    27    19    13   ar
    28     6     1    1
    29    28    21   ar
    30     8    10    1
@<TRIPOS>MOLECULE
*****
 28 30 0 0 0
SMALL
GASTEIGER

@<TRIPOS>ATOM
      1 N         139.9377  142.7213  161.1110 N.3     1  UNL1       -0.2682
      2 C         138.7308  142.1461  161.7911 C.3     1  UNL1        0.0897
      3 C         138.8741  140.9571  162.6942 C.3     1  UNL1        0.0899
      4 N         140.2244  140.3431  162.9172 N.3     1  UNL1       -0.2665
      5 C         141.4314  140.9182  162.2371 C.3     1  UNL1        0.0899
      6 C         141.2881  142.1073  161.3340 C.3     1  UNL1        0.0897
      7 C         139.7944  143.9104  160.2080 C.3     1  UNL1        0.1056
      8 O         141.7113  145.6118  159.7833 O.3     1  UNL1       -0.3793
      9 C         140.4881  145.1966  160.5458 C.3     1  UNL1        0.1700
     10 H         142.0328  146.4607  160.1252 H       1  UNL1        0.2106
     11 C         139.9586  146.0678  161.6462 C.3     1  UNL1        0.2358
     12 O         139.7242  145.4923  163.0114 O.3     1  UNL1       -0.4728
     13 C         140.8270  144.7587  163.7156 C.ar    1  UNL1        0.1388
     14 C         142.2578  145.1249  163.4540 C.ar    1  UNL1        0.0392
     15 C         143.3605  144.3912  164.1581 C.ar    1  UNL1        0.0327
     16 C         143.0322  143.2914  165.1239 C.ar    1  UNL1        0.1403
     17 F         144.1350  142.5577  165.8281 F       1  UNL1       -0.2042
     18 C         141.6014  142.9252  165.3855 C.ar    1  UNL1        0.0327
     19 C         140.4987  143.6589  164.6813 C.ar    1  UNL1        0.0392
     20 C         140.3678  139.1541  163.8202 C.3     1  UNL1        0.0992
     21 C         140.9196  139.3257  165.2045 C.ar    1  UNL1       -0.0052
     22 C         142.3656  139.0348  165.4769 C.ar    1  UNL1       -0.0020
     23 C         142.9174  139.2065  166.8611 C.ar    1  UNL1        0.0120
     24 C         142.0231  139.6691  167.9730 C.ar    1  UNL1        0.0682
     25 CL        142.5748  139.8408  169.3572 Cl      1  UNL1       -0.0814
     26 C         140.5770  139.9600  167.7006 C.ar    1  UNL1        0.0679
     27 CL        139.6827  140.4226  168.8124 Cl      1  UNL1       -0.0814
     28 C         140.0252  139.7883  166.3163 C.ar    1  UNL1        0.0093
@<TRIPOS>BOND
     1     9     8    1
     2     9    11    1
     3    11    12    1
     4    12    13    1
     5    13    14   ar
     6    14    15   ar
     7    15    16   ar
     8    16    17    1
     9    16    18   ar
    10    18    19   ar
    11     9     7    1
    12     7     1    1
    13     1     2    1
    14     2     3    1
    15     3     4    1
    16     4    20    1
    17    20    21    1
    18    21    22   ar
    19    22    23   ar
    20    23    24   ar
    21    24    25    1
    22    24    26   ar
    23    26    27    1
    24    26    28   ar
    25     4     5    1
    26     5     6    1
    27    19    13   ar
    28     6     1    1
    29    28    21   ar
    30     8    10    1
@<TRIPOS>MOLECULE
*****
 28 30 0 0 0
SMALL
GASTEIGER

@<TRIPOS>ATOM
      1 N         140.0623  142.5447  161.0899 N.3     1  UNL1       -0.2682
      2 C         141.3620  141.9017  161.4739 C.3     1  UNL1        0.0897
      3 C         141.3749  140.7567  162.4428 C.3     1  UNL1        0.0899
      4 N         140.0882  140.2546  163.0277 N.3     1  UNL1       -0.2665
      5 C         138.7885  140.8976  162.6438 C.3     1  UNL1        0.0899
      6 C         138.7756  142.0426  161.6749 C.3     1  UNL1        0.0897
      7 C         140.0494  143.6897  160.1210 C.3     1  UNL1        0.1056
      8 O         141.8438  145.5501  159.8579 O.3     1  UNL1       -0.3793
      9 C         140.6093  145.0210  160.5259 C.3     1  UNL1        0.1700
     10 H         142.0694  146.4152  160.2341 H       1  UNL1        0.2106
     11 C         139.9347  145.8234  161.5989 C.3     1  UNL1        0.2358
     12 O         140.6750  146.1640  162.8582 O.3     1  UNL1       -0.4728
     13 C         141.4332  145.0991  163.5938 C.ar    1  UNL1        0.1388
     14 C         140.7007  144.1254  164.4686 C.ar    1  UNL1        0.0392
     15 C         141.4590  143.0605  165.2042 C.ar    1  UNL1        0.0327
     16 C         142.9497  142.9694  165.0650 C.ar    1  UNL1        0.1403
     17 F         143.7079  141.9045  165.8006 F       1  UNL1       -0.2042
     18 C         143.6822  143.9431  164.1902 C.ar    1  UNL1        0.0327
     19 C         142.9239  145.0079  163.4546 C.ar    1  UNL1        0.0392
     20 C         140.1010  139.1096  163.9966 C.3     1  UNL1        0.0992
     21 C         140.1301  139.3763  165.4725 C.ar    1  UNL1       -0.0052
     22 C         138.8473  139.4509  166.2465 C.ar    1  UNL1       -0.0020
     23 C         138.8763  139.7176  167.7223 C.ar    1  UNL1        0.0120
     24 C         140.1880  139.9095  168.4242 C.ar    1  UNL1        0.0682
     25 CL        140.2170  140.1762  169.9000 Cl      1  UNL1       -0.0814
     26 C         141.4707  139.8349  167.6502 C.ar    1  UNL1        0.0679
     27 CL        142.7824  140.0268  168.3520 Cl      1  UNL1       -0.0814
     28 C         141.4417  139.5682  166.1743 C.ar    1  UNL1        0.0093
@<TRIPOS>BOND
     1     9     8    1
     2     9    11    1
     3    11    12    1
     4    12    13    1
     5    13    14   ar
     6    14    15   ar
     7    15    16   ar
     8    16    17    1
     9    16    18   ar
    10    18    19   ar
    11     9     7    1
    12     7     1    1
    13     1     2    1
    14     2     3    1
    15     3     4    1
    16     4    20    1
    17    20    21    1
    18    21    22   ar
    19    22    23   ar
    20    23    24   ar
    21    24    25    1
    22    24    26   ar
    23    26    27    1
    24    26    28   ar
    25     4     5    1
    26     5     6    1
    27    19    13   ar
    28     6     1    1
    29    28    21   ar
    30     8    10    1
@<TRIPOS>MOLECULE
*****
 28 30 0 0 0
SMALL
GASTEIGER

@<TRIPOS>ATOM
      1 N         142.9534  141.0599  162.4543 N.3     1  UNL1       -0.2682
      2 C         141.7409  141.6914  163.0718 C.3     1  UNL1        0.0897
      3 C         141.7952  142.1974  164.4828 C.3     1  UNL1        0.0899
      4 N         143.0619  142.0720  165.2764 N.3     1  UNL1       -0.2665
      5 C         144.2743  141.4406  164.6589 C.3     1  UNL1        0.0899
      6 C         144.2201  140.9345  163.2478 C.3     1  UNL1        0.0897
      7 C         142.8991  140.5539  161.0433 C.3     1  UNL1        0.1056
      8 O         144.4848  138.5526  160.5634 O.3     1  UNL1       -0.3793
      9 C         143.1002  139.0944  160.7618 C.3     1  UNL1        0.1700
     10 H         144.4375  137.5990  160.3923 H       1  UNL1        0.2106
     11 C         141.9167  138.1765  160.6785 C.3     1  UNL1        0.2358
     12 O         141.5961  137.2604  161.8221 O.3     1  UNL1       -0.4728
     13 C         141.0853  137.8247  163.1147 C.ar    1  UNL1        0.1388
     14 C         139.6184  138.0821  163.2929 C.ar    1  UNL1        0.0392
     15 C         139.1076  138.6464  164.5854 C.ar    1  UNL1        0.0327
     16 C         140.0637  138.9532  165.6998 C.ar    1  UNL1        0.1403
     17 F         139.5528  139.5174  166.9923 F       1  UNL1       -0.2042
     18 C         141.5306  138.6957  165.5216 C.ar    1  UNL1        0.0327
     19 C         142.0414  138.1314  164.2290 C.ar    1  UNL1        0.0392
     20 C         143.1162  142.5781  166.6873 C.3     1  UNL1        0.0992
     21 C         142.3249  141.8919  167.7612 C.ar    1  UNL1       -0.0052
     22 C         141.0519  142.5063  168.2633 C.ar    1  UNL1       -0.0020
     23 C         140.2605  141.8202  169.3371 C.ar    1  UNL1        0.0120
     24 C         140.7422  140.5197  169.9088 C.ar    1  UNL1        0.0682
     25 CL        139.9508  139.8337  170.9826 Cl      1  UNL1       -0.0814
     26 C         142.0152  139.9054  169.4067 C.ar    1  UNL1        0.0679
     27 CL        142.4968  138.6050  169.9784 Cl      1  UNL1       -0.0814
     28 C         142.8065  140.5915  168.3329 C.ar    1  UNL1        0.0093
@<TRIPOS>BOND
     1     9     8    1
     2     9    11    1
     3    11    12    1
     4    12    13    1
     5    13    14   ar
     6    14    15   ar
     7    15    16   ar
     8    16    17    1
     9    16    18   ar
    10    18    19   ar
    11     9     7    1
    12     7     1    1
    13     1     2    1
    14     2     3    1
    15     3     4    1
    16     4    20    1
    17    20    21    1
    18    21    22   ar
    19    22    23   ar
    20    23    24   ar
    21    24    25    1
    22    24    26   ar
    23    26    27    1
    24    26    28   ar
    25     4     5    1
    26     5     6    1
    27    19    13   ar
    28     6     1    1
    29    28    21   ar
    30     8    10    1
@<TRIPOS>MOLECULE
*****
 28 30 0 0 0
SMALL
GASTEIGER

@<TRIPOS>ATOM
      1 N         138.6226  139.7182  159.7392 N.3     1  UNL1       -0.2682
      2 C         140.0141  139.2091  159.9733 C.3     1  UNL1        0.0897
      3 C         140.3362  138.4580  161.2310 C.3     1  UNL1        0.0899
      4 N         139.2669  138.2158  162.2547 N.3     1  UNL1       -0.2665
      5 C         137.8755  138.7247  162.0207 C.3     1  UNL1        0.0899
      6 C         137.5533  139.4759  160.7629 C.3     1  UNL1        0.0897
      7 C         138.3005  140.4693  158.4815 C.3     1  UNL1        0.1056
      8 O         137.5951  142.6944  157.3407 O.3     1  UNL1       -0.3793
      9 C         138.1900  141.9650  158.5087 C.3     1  UNL1        0.1700
     10 H         137.5985  143.6479  157.5192 H       1  UNL1        0.2106
     11 C         138.6744  142.7312  159.7038 C.3     1  UNL1        0.2358
     12 O         137.7511  142.9811  160.8592 O.3     1  UNL1       -0.4728
     13 C         138.3014  143.0812  162.2510 C.ar    1  UNL1        0.1388
     14 C         137.7431  144.0930  163.2073 C.ar    1  UNL1        0.0392
     15 C         138.2934  144.1930  164.5991 C.ar    1  UNL1        0.0327
     16 C         139.4021  143.2813  165.0346 C.ar    1  UNL1        0.1403
     17 F         139.9524  143.3814  166.4264 F       1  UNL1       -0.2042
     18 C         139.9605  142.2696  164.0783 C.ar    1  UNL1        0.0327
     19 C         139.4101  142.1695  162.6865 C.ar    1  UNL1        0.0392
     20 C         139.5891  137.4646  163.5124 C.3     1  UNL1        0.0992
     21 C         140.3513  138.1389  164.6144 C.ar    1  UNL1       -0.0052
     22 C         141.8406  137.9823  164.7010 C.ar    1  UNL1       -0.0020
     23 C         142.6029  138.6566  165.8029 C.ar    1  UNL1        0.0120
     24 C         141.8759  139.4875  166.8184 C.ar    1  UNL1        0.0682
     25 CL        142.6381  140.1618  167.9203 Cl      1  UNL1       -0.0814
     26 C         140.3866  139.6441  166.7318 C.ar    1  UNL1        0.0679
     27 CL        139.6596  140.4750  167.7472 Cl      1  UNL1       -0.0814
     28 C         139.6243  138.9698  165.6298 C.ar    1  UNL1        0.0093
@<TRIPOS>BOND
     1     9     8    1
     2     9    11    1
     3    11    12    1
     4    12    13    1
     5    13    14   ar
     6    14    15   ar
     7    15    16   ar
     8    16    17    1
     9    16    18   ar
    10    18    19   ar
    11     9     7    1
    12     7     1    1
    13     1     2    1
    14     2     3    1
    15     3     4    1
    16     4    20    1
    17    20    21    1
    18    21    22   ar
    19    22    23   ar
    20    23    24   ar
    21    24    25    1
    22    24    26   ar
    23    26    27    1
    24    26    28   ar
    25     4     5    1
    26     5     6    1
    27    19    13   ar
    28     6     1    1
    29    28    21   ar
    30     8    10    1
@<TRIPOS>MOLECULE
*****
 28 30 0 0 0
SMALL
GASTEIGER

@<TRIPOS>ATOM
      1 N         140.0235  138.5474  161.9498 N.3     1  UNL1       -0.2682
      2 C         141.4172  139.0787  161.7903 C.3     1  UNL1        0.0897
      3 C         142.3717  139.0397  162.9468 C.3     1  UNL1        0.0899
      4 N         141.9325  138.4694  164.2628 N.3     1  UNL1       -0.2665
      5 C         140.5388  137.9381  164.4224 C.3     1  UNL1        0.0899
      6 C         139.5843  137.9771  163.2658 C.3     1  UNL1        0.0897
      7 C         139.0691  138.5865  160.7934 C.3     1  UNL1        0.1056
      8 O         136.5622  139.2685  160.7784 O.3     1  UNL1       -0.3793
      9 C         138.0123  139.6489  160.7287 C.3     1  UNL1        0.1700
     10 H         136.0160  140.0684  160.7261 H       1  UNL1        0.2106
     11 C         138.4055  141.0920  160.6143 C.3     1  UNL1        0.2358
     12 O         137.6807  142.1326  161.4154 O.3     1  UNL1       -0.4728
     13 C         138.2186  142.5625  162.7480 C.ar    1  UNL1        0.1388
     14 C         139.2591  141.7328  163.4399 C.ar    1  UNL1        0.0392
     15 C         139.7969  142.1627  164.7725 C.ar    1  UNL1        0.0327
     16 C         139.2943  143.4224  165.4132 C.ar    1  UNL1        0.1403
     17 F         139.8321  143.8523  166.7459 F       1  UNL1       -0.2042
     18 C         138.2538  144.2522  164.7213 C.ar    1  UNL1        0.0327
     19 C         137.7159  143.8222  163.3887 C.ar    1  UNL1        0.0392
     20 C         142.8869  138.4303  165.4193 C.3     1  UNL1        0.0992
     21 C         142.8569  139.5164  166.4536 C.ar    1  UNL1       -0.0052
     22 C         142.9225  140.9547  166.0328 C.ar    1  UNL1       -0.0020
     23 C         142.8925  142.0408  167.0670 C.ar    1  UNL1        0.0120
     24 C         142.7968  141.6886  168.5220 C.ar    1  UNL1        0.0682
     25 CL        142.7668  142.7746  169.5561 Cl      1  UNL1       -0.0814
     26 C         142.7311  140.2503  168.9427 C.ar    1  UNL1        0.0679
     27 CL        142.6355  139.8980  170.3976 Cl      1  UNL1       -0.0814
     28 C         142.7612  139.1642  167.9084 C.ar    1  UNL1        0.0093
@<TRIPOS>BOND
     1     9     8    1
     2     9    11    1
     3    11    12    1
     4    12    13    1
     5    13    14   ar
     6    14    15   ar
     7    15    16   ar
     8    16    17    1
     9    16    18   ar
    10    18    19   ar
    11     9     7    1
    12     7     1    1
    13     1     2    1
    14     2     3    1
    15     3     4    1
    16     4    20    1
    17    20    21    1
    18    21    22   ar
    19    22    23   ar
    20    23    24   ar
    21    24    25    1
    22    24    26   ar
    23    26    27    1
    24    26    28   ar
    25     4     5    1
    26     5     6    1
    27    19    13   ar
    28     6     1    1
    29    28    21   ar
    30     8    10    1
@<TRIPOS>MOLECULE
*****
 28 30 0 0 0
SMALL
GASTEIGER

@<TRIPOS>ATOM
      1 N         138.7937  141.8939  161.9125 N.3     1  UNL1       -0.2682
      2 C         137.7882  142.5067  162.8418 C.3     1  UNL1        0.0897
      3 C         138.2022  142.9342  164.2186 C.3     1  UNL1        0.0899
      4 N         139.6218  142.7490  164.6663 N.3     1  UNL1       -0.2665
      5 C         140.6274  142.1363  163.7372 C.3     1  UNL1        0.0899
      6 C         140.2133  141.7087  162.3602 C.3     1  UNL1        0.0897
      7 C         138.3797  141.4664  160.5357 C.3     1  UNL1        0.1056
      8 O         138.5892  139.4190  158.9501 O.3     1  UNL1       -0.3793
      9 C         138.1254  140.0170  160.2452 C.3     1  UNL1        0.1700
     10 H         138.3468  138.4802  158.9223 H       1  UNL1        0.2106
     11 C         137.4073  139.1654  161.2499 C.3     1  UNL1        0.2358
     12 O         138.0005  137.8586  161.6861 O.3     1  UNL1       -0.4728
     13 C         139.1662  137.8420  162.6300 C.ar    1  UNL1        0.1388
     14 C         138.9315  137.8084  164.1111 C.ar    1  UNL1        0.0392
     15 C         140.0972  137.7917  165.0550 C.ar    1  UNL1        0.0327
     16 C         141.4976  137.8087  164.5177 C.ar    1  UNL1        0.1403
     17 F         142.6633  137.7920  165.4616 F       1  UNL1       -0.2042
     18 C         141.7323  137.8423  163.0366 C.ar    1  UNL1        0.0327
     19 C         140.5666  137.8589  162.0928 C.ar    1  UNL1        0.0392
     20 C         140.0358  143.1766  166.0431 C.3     1  UNL1        0.0992
     21 C         140.5480  142.1613  167.0215 C.ar    1  UNL1       -0.0052
     22 C         139.8434  140.8460  167.1753 C.ar    1  UNL1       -0.0020
     23 C         140.3555  139.8308  168.1536 C.ar    1  UNL1        0.0120
     24 C         141.5722  140.1309  168.9781 C.ar    1  UNL1        0.0682
     25 CL        142.0842  139.1157  169.9564 Cl      1  UNL1       -0.0814
     26 C         142.2767  141.4461  168.8243 C.ar    1  UNL1        0.0679
     27 CL        143.4933  141.7462  169.6488 Cl      1  UNL1       -0.0814
     28 C         141.7646  142.4614  167.8460 C.ar    1  UNL1        0.0093
@<TRIPOS>BOND
     1     9     8    1
     2     9    11    1
     3    11    12    1
     4    12    13    1
     5    13    14   ar
     6    14    15   ar
     7    15    16   ar
     8    16    17    1
     9    16    18   ar
    10    18    19   ar
    11     9     7    1
    12     7     1    1
    13     1     2    1
    14     2     3    1
    15     3     4    1
    16     4    20    1
    17    20    21    1
    18    21    22   ar
    19    22    23   ar
    20    23    24   ar
    21    24    25    1
    22    24    26   ar
    23    26    27    1
    24    26    28   ar
    25     4     5    1
    26     5     6    1
    27    19    13   ar
    28     6     1    1
    29    28    21   ar
    30     8    10    1
@<TRIPOS>MOLECULE
*****
 28 30 0 0 0
SMALL
GASTEIGER

@<TRIPOS>ATOM
      1 N         140.1186  139.5397  162.1913 N.3     1  UNL1       -0.2682
      2 C         139.6974  138.4453  163.1267 C.3     1  UNL1        0.0897
      3 C         140.3329  138.3299  164.4806 C.3     1  UNL1        0.0899
      4 N         141.3895  139.3088  164.8990 N.3     1  UNL1       -0.2665
      5 C         141.8107  140.4032  163.9637 C.3     1  UNL1        0.0899
      6 C         141.1753  140.5186  162.6098 C.3     1  UNL1        0.0897
      7 C         139.4832  139.6551  160.8375 C.3     1  UNL1        0.1056
      8 O         136.8862  139.7074  160.7832 O.3     1  UNL1       -0.3793
      9 C         138.2025  140.4183  160.6728 C.3     1  UNL1        0.1700
     10 H         136.1642  140.3417  160.6521 H       1  UNL1        0.2106
     11 C         138.2379  141.8925  160.3976 C.3     1  UNL1        0.2358
     12 O         137.6903  142.8572  161.4072 O.3     1  UNL1       -0.4728
     13 C         138.3381  142.9812  162.7545 C.ar    1  UNL1        0.1388
     14 C         139.2806  144.1145  163.0320 C.ar    1  UNL1        0.0392
     15 C         139.9284  144.2385  164.3793 C.ar    1  UNL1        0.0327
     16 C         139.6336  143.2290  165.4489 C.ar    1  UNL1        0.1403
     17 F         140.2814  143.3530  166.7962 F       1  UNL1       -0.2042
     18 C         138.6911  142.0957  165.1713 C.ar    1  UNL1        0.0327
     19 C         138.0433  141.9718  163.8241 C.ar    1  UNL1        0.0392
     20 C         142.0250  139.1934  166.2528 C.3     1  UNL1        0.0992
     21 C         141.5402  140.0506  167.3844 C.ar    1  UNL1       -0.0052
     22 C         140.1095  139.9687  167.8277 C.ar    1  UNL1       -0.0020
     23 C         139.6248  140.8258  168.9592 C.ar    1  UNL1        0.0120
     24 C         140.5707  141.7648  169.6475 C.ar    1  UNL1        0.0682
     25 CL        140.0860  142.6218  170.7791 Cl      1  UNL1       -0.0814
     26 C         142.0014  141.8466  169.2042 C.ar    1  UNL1        0.0679
     27 CL        142.9473  142.7855  169.8925 Cl      1  UNL1       -0.0814
     28 C         142.4861  140.9895  168.0726 C.ar    1  UNL1        0.0093
@<TRIPOS>BOND
     1     9     8    1
     2     9    11    1
     3    11    12    1
     4    12    13    1
     5    13    14   ar
     6    14    15   ar
     7    15    16   ar
     8    16    17    1
     9    16    18   ar
    10    18    19   ar
    11     9     7    1
    12     7     1    1
    13     1     2    1
    14     2     3    1
    15     3     4    1
    16     4    20    1
    17    20    21    1
    18    21    22   ar
    19    22    23   ar
    20    23    24   ar
    21    24    25    1
    22    24    26   ar
    23    26    27    1
    24    26    28   ar
    25     4     5    1
    26     5     6    1
    27    19    13   ar
    28     6     1    1
    29    28    21   ar
    30     8    10    1
