@<TRIPOS>MOLECULE
*****
 40 44 0 0 0
SMALL
GASTEIGER

@<TRIPOS>ATOM
      1 N         143.7931  142.7751  160.0269 N.ar    1  UNL1       -0.3063
      2 C         143.7937  142.9395  158.5360 C.ar    1  UNL1        0.1240
      3 C         142.6656  143.8580  158.1704 C.ar    1  UNL1        0.1156
      4 C         141.9678  144.2614  159.4354 C.ar    1  UNL1        0.0966
      5 C         142.6646  143.5921  160.5829 C.ar    1  UNL1        0.1349
      6 C         142.1815  143.8131  161.9857 C.ar    1  UNL1        0.2819
      7 O         142.8783  143.1439  163.1331 O.2     1  UNL1       -0.2652
      8 N         141.0016  144.7034  162.2410 N.ar    1  UNL1       -0.2417
      9 C         140.3047  145.3726  161.0936 C.ar    1  UNL1        0.3342
     10 O         139.1248  146.2629  161.3490 O.2     1  UNL1       -0.2462
     11 N         140.7878  145.1516  159.6909 N.ar    1  UNL1       -0.2770
     12 C         140.0910  145.8209  158.5435 C.3     1  UNL1        0.1351
     13 N         144.7538  142.2979  157.5787 N.pl3   1  UNL1       -0.2925
     14 C         144.2015  141.1665  156.7631 C.3     1  UNL1        0.0936
     15 C         144.8983  140.3304  155.7310 C.3     1  UNL1        0.0385
     16 C         146.3195  140.4190  155.2594 C.3     1  UNL1        0.0704
     17 N         147.3949  141.3657  155.7035 N.3     1  UNL1       -0.2960
     18 C         147.3147  142.4576  156.7290 C.3     1  UNL1        0.0903
     19 C         146.1394  142.8724  157.5634 C.3     1  UNL1        0.1092
     20 H         147.6877  141.8390  154.8487 H       1  UNL1        0.1233
     21 C         142.2996  144.2962  156.7833 C.1     1  UNL1        0.1047
     22 N         141.9335  144.7345  155.3963 N.1     1  UNL1       -0.1907
     23 C         144.7525  141.9404  160.8224 C.3     1  UNL1        0.1332
     24 C         144.2546  139.1459  163.5959 C.3     1  UNL1        0.0261
     25 C         144.7351  140.3878  162.9054 C.2     1  UNL1       -0.0460
     26 C         145.6785  141.3190  163.6074 C.3     1  UNL1        0.0261
     27 C         144.2721  140.6985  161.5129 C.2     1  UNL1       -0.0102
     28 C         140.5185  144.9244  163.6438 C.3     1  UNL1        0.1600
     29 C         140.3298  143.7556  164.5649 C.ar    1  UNL1        0.0916
     30 N         141.1514  143.6458  165.8151 N.ar    1  UNL1       -0.2455
     31 C         140.9628  142.4771  166.7363 C.ar    1  UNL1        0.0985
     32 C         139.9526  141.4182  166.4073 C.ar    1  UNL1        0.0198
     33 C         139.7640  140.2495  167.3284 C.ar    1  UNL1        0.0016
     34 C         138.7538  139.1906  166.9994 C.ar    1  UNL1        0.0000
     35 C         137.9323  139.3004  165.7492 C.ar    1  UNL1        0.0000
     36 C         138.1209  140.4691  164.8280 C.ar    1  UNL1        0.0008
     37 C         139.1310  141.5280  165.1571 C.ar    1  UNL1        0.0123
     38 C         139.3197  142.6967  164.2359 C.ar    1  UNL1        0.0839
     39 C         138.4982  142.8065  162.9857 C.1     1  UNL1        0.1017
     40 N         137.6766  142.9163  161.7355 N.1     1  UNL1       -0.1908
@<TRIPOS>BOND
     1    24    25    1
     2    25    26    1
     3    25    27    2
     4    27    23    1
     5    23     1    1
     6     1     2   ar
     7     2    13    1
     8    13    14    1
     9    14    15    1
    10    15    16    1
    11    16    17    1
    12    17    18    1
    13    18    19    1
    14     2     3   ar
    15     3    21    1
    16    21    22    3
    17     3     4   ar
    18     4     5   ar
    19     5     6   ar
    20     6     7    2
    21     6     8   ar
    22     8    28    1
    23    28    29    1
    24    29    30   ar
    25    30    31   ar
    26    31    32   ar
    27    32    33   ar
    28    33    34   ar
    29    34    35   ar
    30    35    36   ar
    31    36    37   ar
    32    37    38   ar
    33    38    39    1
    34    39    40    3
    35     8     9   ar
    36     9    10    2
    37     9    11   ar
    38    11    12    1
    39     5     1   ar
    40    38    29   ar
    41    19    13    1
    42    11     4   ar
    43    37    32   ar
    44    17    20    1
@<TRIPOS>MOLECULE
*****
 40 44 0 0 0
SMALL
GASTEIGER

@<TRIPOS>ATOM
      1 N         141.9986  139.1696  160.3034 N.ar    1  UNL1       -0.3063
      2 C         142.0143  139.7983  158.9417 C.ar    1  UNL1        0.1240
      3 C         140.8481  140.7373  158.8511 C.ar    1  UNL1        0.1156
      4 C         140.1116  140.6889  160.1569 C.ar    1  UNL1        0.0966
      5 C         140.8226  139.7200  161.0545 C.ar    1  UNL1        0.1349
      6 C         140.3073  139.4642  162.4399 C.ar    1  UNL1        0.2819
      7 O         141.0184  138.4953  163.3375 O.2     1  UNL1       -0.2652
      8 N         139.0811  140.1772  162.9276 N.ar    1  UNL1       -0.2417
      9 C         138.3701  141.1461  162.0300 C.ar    1  UNL1        0.3342
     10 O         137.1438  141.8591  162.5176 O.2     1  UNL1       -0.2462
     11 N         138.8853  141.4019  160.6447 N.ar    1  UNL1       -0.2770
     12 C         138.1743  142.3708  159.7471 C.3     1  UNL1        0.1351
     13 N         143.0198  139.5343  157.8603 N.pl3   1  UNL1       -0.2925
     14 C         142.7909  138.2947  157.0473 C.3     1  UNL1        0.0936
     15 C         143.6069  137.7596  155.9082 C.3     1  UNL1        0.0385
     16 C         144.8533  138.3317  155.3006 C.3     1  UNL1        0.0704
     17 N         145.5915  139.5805  155.6822 N.3     1  UNL1       -0.2960
     18 C         145.2656  140.5654  156.7656 C.3     1  UNL1        0.0903
     19 C         144.1212  140.5450  157.7349 C.3     1  UNL1        0.1092
     20 H         145.6103  140.1374  154.8278 H       1  UNL1        0.1233
     21 C         140.4826  141.5772  157.6633 C.1     1  UNL1        0.1047
     22 N         140.1170  142.4171  156.4755 N.1     1  UNL1       -0.1907
     23 C         142.9855  138.1665  160.8229 C.3     1  UNL1        0.1332
     24 C         144.8990  139.7921  163.8963 C.3     1  UNL1        0.0261
     25 C         144.2980  139.6164  162.5333 C.2     1  UNL1       -0.0460
     26 C         144.4084  140.7147  161.5177 C.3     1  UNL1        0.0261
     27 C         143.5866  138.3423  162.1860 C.2     1  UNL1       -0.0102
     28 C         138.5659  139.9213  164.3128 C.3     1  UNL1        0.1600
     29 C         139.2362  140.5612  165.4924 C.ar    1  UNL1        0.0916
     30 N         140.1518  141.7320  165.2908 N.ar    1  UNL1       -0.2455
     31 C         140.8220  142.3719  166.4703 C.ar    1  UNL1        0.0985
     32 C         140.5767  141.8409  167.8516 C.ar    1  UNL1        0.0198
     33 C         141.2469  142.4807  169.0311 C.ar    1  UNL1        0.0016
     34 C         141.0016  141.9497  170.4123 C.ar    1  UNL1        0.0000
     35 C         140.0859  140.7788  170.6140 C.ar    1  UNL1        0.0000
     36 C         139.4157  140.1390  169.4344 C.ar    1  UNL1        0.0008
     37 C         139.6611  140.6700  168.0532 C.ar    1  UNL1        0.0123
     38 C         138.9908  140.0301  166.8736 C.ar    1  UNL1        0.0839
     39 C         138.0752  138.8593  167.0753 C.1     1  UNL1        0.1017
     40 N         137.1595  137.6884  167.2770 N.1     1  UNL1       -0.1908
@<TRIPOS>BOND
     1    24    25    1
     2    25    26    1
     3    25    27    2
     4    27    23    1
     5    23     1    1
     6     1     2   ar
     7     2    13    1
     8    13    14    1
     9    14    15    1
    10    15    16    1
    11    16    17    1
    12    17    18    1
    13    18    19    1
    14     2     3   ar
    15     3    21    1
    16    21    22    3
    17     3     4   ar
    18     4     5   ar
    19     5     6   ar
    20     6     7    2
    21     6     8   ar
    22     8    28    1
    23    28    29    1
    24    29    30   ar
    25    30    31   ar
    26    31    32   ar
    27    32    33   ar
    28    33    34   ar
    29    34    35   ar
    30    35    36   ar
    31    36    37   ar
    32    37    38   ar
    33    38    39    1
    34    39    40    3
    35     8     9   ar
    36     9    10    2
    37     9    11   ar
    38    11    12    1
    39     5     1   ar
    40    38    29   ar
    41    19    13    1
    42    11     4   ar
    43    37    32   ar
    44    17    20    1
@<TRIPOS>MOLECULE
*****
 40 44 0 0 0
SMALL
GASTEIGER

@<TRIPOS>ATOM
      1 N         142.2696  141.5351  164.6564 N.ar    1  UNL1       -0.3063
      2 C         141.2156  142.1615  165.5203 C.ar    1  UNL1        0.1240
      3 C         140.6255  143.3168  164.7675 C.ar    1  UNL1        0.1156
      4 C         141.3149  143.4045  163.4381 C.ar    1  UNL1        0.0966
      5 C         142.3310  142.3033  163.3695 C.ar    1  UNL1        0.1349
      6 C         143.1810  142.1424  162.1440 C.ar    1  UNL1        0.2819
      7 O         144.1972  141.0412  162.0753 O.2     1  UNL1       -0.2652
      8 N         143.0147  143.0827  160.9872 N.ar    1  UNL1       -0.2417
      9 C         141.9985  144.1839  161.0559 C.ar    1  UNL1        0.3342
     10 O         141.8322  145.1242  159.8991 O.2     1  UNL1       -0.2462
     11 N         141.1486  144.3448  162.2813 N.ar    1  UNL1       -0.2770
     12 C         140.1324  145.4460  162.3499 C.3     1  UNL1        0.1351
     13 N         140.8209  141.7115  166.8957 N.pl3   1  UNL1       -0.2925
     14 C         139.7777  140.6351  166.9540 C.3     1  UNL1        0.0936
     15 C         139.1776  139.9789  168.1619 C.3     1  UNL1        0.0385
     16 C         139.4723  140.2368  169.6099 C.3     1  UNL1        0.0704
     17 N         140.4400  141.2148  170.2076 N.3     1  UNL1       -0.2960
     18 C         141.3520  142.1763  169.5048 C.3     1  UNL1        0.0903
     19 C         141.5215  142.3974  168.0310 C.3     1  UNL1        0.1092
     20 H         141.0627  140.6422  170.7776 H       1  UNL1        0.1233
     21 C         139.5370  144.2251  165.2577 C.1     1  UNL1        0.1047
     22 N         138.4486  145.1334  165.7480 N.1     1  UNL1       -0.1907
     23 C         143.1141  140.3487  165.0161 C.3     1  UNL1        0.1332
     24 C         141.1949  136.9010  164.5931 C.3     1  UNL1        0.0261
     25 C         141.8450  138.2113  164.2608 C.2     1  UNL1       -0.0460
     26 C         141.8760  138.6945  162.8411 C.3     1  UNL1        0.0261
     27 C         142.4640  139.0384  165.3483 C.2     1  UNL1       -0.0102
     28 C         143.8646  142.9218  159.7618 C.3     1  UNL1        0.1600
     29 C         143.5789  141.8145  158.7910 C.ar    1  UNL1        0.0916
     30 N         142.2980  141.0405  158.8919 N.ar    1  UNL1       -0.2455
     31 C         142.0123  139.9333  157.9211 C.ar    1  UNL1        0.0985
     32 C         143.0075  139.6000  156.8494 C.ar    1  UNL1        0.0198
     33 C         142.7218  138.4928  155.8787 C.ar    1  UNL1        0.0016
     34 C         143.7170  138.1595  154.8071 C.ar    1  UNL1        0.0000
     35 C         144.9980  138.9334  154.7062 C.ar    1  UNL1        0.0000
     36 C         145.2837  140.0407  155.6769 C.ar    1  UNL1        0.0008
     37 C         144.2885  140.3739  156.7486 C.ar    1  UNL1        0.0123
     38 C         144.5742  141.4812  157.7194 C.ar    1  UNL1        0.0839
     39 C         145.8551  142.2552  157.6185 C.1     1  UNL1        0.1017
     40 N         147.1361  143.0291  157.5176 N.1     1  UNL1       -0.1908
@<TRIPOS>BOND
     1    24    25    1
     2    25    26    1
     3    25    27    2
     4    27    23    1
     5    23     1    1
     6     1     2   ar
     7     2    13    1
     8    13    14    1
     9    14    15    1
    10    15    16    1
    11    16    17    1
    12    17    18    1
    13    18    19    1
    14     2     3   ar
    15     3    21    1
    16    21    22    3
    17     3     4   ar
    18     4     5   ar
    19     5     6   ar
    20     6     7    2
    21     6     8   ar
    22     8    28    1
    23    28    29    1
    24    29    30   ar
    25    30    31   ar
    26    31    32   ar
    27    32    33   ar
    28    33    34   ar
    29    34    35   ar
    30    35    36   ar
    31    36    37   ar
    32    37    38   ar
    33    38    39    1
    34    39    40    3
    35     8     9   ar
    36     9    10    2
    37     9    11   ar
    38    11    12    1
    39     5     1   ar
    40    38    29   ar
    41    19    13    1
    42    11     4   ar
    43    37    32   ar
    44    17    20    1
@<TRIPOS>MOLECULE
*****
 40 44 0 0 0
SMALL
GASTEIGER

@<TRIPOS>ATOM
      1 N         140.9497  139.4400  159.4809 N.ar    1  UNL1       -0.3063
      2 C         141.4401  139.2386  158.0778 C.ar    1  UNL1        0.1240
      3 C         141.9277  140.5604  157.5629 C.ar    1  UNL1        0.1156
      4 C         141.7386  141.5788  158.6479 C.ar    1  UNL1        0.0966
      5 C         141.1341  140.8863  159.8333 C.ar    1  UNL1        0.1349
      6 C         140.8298  141.6623  161.0804 C.ar    1  UNL1        0.2819
      7 O         140.2254  140.9699  162.2658 O.2     1  UNL1       -0.2652
      8 N         141.1299  143.1307  161.1421 N.ar    1  UNL1       -0.2417
      9 C         141.7343  143.8231  159.9567 C.ar    1  UNL1        0.3342
     10 O         142.0344  145.2915  160.0184 O.2     1  UNL1       -0.2462
     11 N         142.0386  143.0472  158.7096 N.ar    1  UNL1       -0.2770
     12 C         142.6431  143.7396  157.5242 C.3     1  UNL1        0.1351
     13 N         141.4426  137.9429  157.3222 N.pl3   1  UNL1       -0.2925
     14 C         142.6466  137.0719  157.5275 C.3     1  UNL1        0.0936
     15 C         142.9460  135.7325  156.9225 C.3     1  UNL1        0.0385
     16 C         142.1155  134.9330  155.9627 C.3     1  UNL1        0.0704
     17 N         140.7805  135.2756  155.3709 N.3     1  UNL1       -0.2960
     18 C         139.9462  136.5023  155.5928 C.3     1  UNL1        0.0903
     19 C         140.2408  137.6893  156.4611 C.3     1  UNL1        0.1092
     20 H         140.1742  134.5016  155.6428 H       1  UNL1        0.1233
     21 C         142.5033  140.8185  156.2020 C.1     1  UNL1        0.1047
     22 N         143.0789  141.0767  154.8411 N.1     1  UNL1       -0.1907
     23 C         140.3756  138.3811  160.3748 C.3     1  UNL1        0.1332
     24 C         141.2081  137.0871  164.0330 C.3     1  UNL1        0.0261
     25 C         140.4332  137.5623  162.8398 C.2     1  UNL1       -0.0460
     26 C         138.9410  137.6939  162.9184 C.3     1  UNL1        0.0261
     27 C         141.1505  137.9059  161.5680 C.2     1  UNL1       -0.0102
     28 C         140.8255  143.9066  162.3892 C.3     1  UNL1        0.1600
     29 C         141.4127  143.4780  163.7013 C.ar    1  UNL1        0.0916
     30 N         142.8678  143.1254  163.7923 N.ar    1  UNL1       -0.2455
     31 C         143.4550  142.6968  165.1043 C.ar    1  UNL1        0.0985
     32 C         142.5871  142.6208  166.3254 C.ar    1  UNL1        0.0198
     33 C         143.1743  142.1921  167.6374 C.ar    1  UNL1        0.0016
     34 C         142.3064  142.1162  168.8584 C.ar    1  UNL1        0.0000
     35 C         140.8513  142.4688  168.7674 C.ar    1  UNL1        0.0000
     36 C         140.2641  142.8974  167.4554 C.ar    1  UNL1        0.0008
     37 C         141.1320  142.9734  166.2344 C.ar    1  UNL1        0.0123
     38 C         140.5448  143.4020  164.9223 C.ar    1  UNL1        0.0839
     39 C         139.0897  143.7546  164.8313 C.1     1  UNL1        0.1017
     40 N         137.6346  144.1072  164.7403 N.1     1  UNL1       -0.1908
@<TRIPOS>BOND
     1    24    25    1
     2    25    26    1
     3    25    27    2
     4    27    23    1
     5    23     1    1
     6     1     2   ar
     7     2    13    1
     8    13    14    1
     9    14    15    1
    10    15    16    1
    11    16    17    1
    12    17    18    1
    13    18    19    1
    14     2     3   ar
    15     3    21    1
    16    21    22    3
    17     3     4   ar
    18     4     5   ar
    19     5     6   ar
    20     6     7    2
    21     6     8   ar
    22     8    28    1
    23    28    29    1
    24    29    30   ar
    25    30    31   ar
    26    31    32   ar
    27    32    33   ar
    28    33    34   ar
    29    34    35   ar
    30    35    36   ar
    31    36    37   ar
    32    37    38   ar
    33    38    39    1
    34    39    40    3
    35     8     9   ar
    36     9    10    2
    37     9    11   ar
    38    11    12    1
    39     5     1   ar
    40    38    29   ar
    41    19    13    1
    42    11     4   ar
    43    37    32   ar
    44    17    20    1
@<TRIPOS>MOLECULE
*****
 40 44 0 0 0
SMALL
GASTEIGER

@<TRIPOS>ATOM
      1 N         141.6850  142.1142  160.8071 N.ar    1  UNL1       -0.3063
      2 C         140.8223  142.4220  159.6193 C.ar    1  UNL1        0.1240
      3 C         139.6662  141.4664  159.6259 C.ar    1  UNL1        0.1156
      4 C         139.8143  140.5680  160.8179 C.ar    1  UNL1        0.0966
      5 C         141.0620  140.9684  161.5480 C.ar    1  UNL1        0.1349
      6 C         141.4696  140.2378  162.7930 C.ar    1  UNL1        0.2819
      7 O         142.7173  140.6382  163.5231 O.2     1  UNL1       -0.2652
      8 N         140.6295  139.1069  163.3080 N.ar    1  UNL1       -0.2417
      9 C         139.3818  138.7065  162.5780 C.ar    1  UNL1        0.3342
     10 O         138.5417  137.5756  163.0930 O.2     1  UNL1       -0.2462
     11 N         138.9742  139.4370  161.3330 N.ar    1  UNL1       -0.2770
     12 C         137.7265  139.0366  160.6030 C.3     1  UNL1        0.1351
     13 N         141.0720  143.4967  158.6031 N.pl3   1  UNL1       -0.2925
     14 C         142.0476  143.1517  157.5171 C.3     1  UNL1        0.0936
     15 C         142.5051  143.9991  156.3671 C.3     1  UNL1        0.0385
     16 C         142.1002  145.4008  156.0190 C.3     1  UNL1        0.0704
     17 N         141.1377  146.3014  156.7350 N.3     1  UNL1       -0.2960
     18 C         140.3425  146.0226  157.9759 C.3     1  UNL1        0.0903
     19 C         140.3132  144.7745  158.8072 C.3     1  UNL1        0.1092
     20 H         140.4386  146.5391  156.0314 H       1  UNL1        0.1233
     21 C         138.5567  141.4177  158.6176 C.1     1  UNL1        0.1047
     22 N         137.4472  141.3690  157.6093 N.1     1  UNL1       -0.1907
     23 C         142.9488  142.8271  161.1874 C.3     1  UNL1        0.1332
     24 C         143.8249  145.2884  164.1747 C.3     1  UNL1        0.0261
     25 C         143.8780  144.1123  163.2453 C.2     1  UNL1       -0.0460
     26 C         144.9131  143.0451  163.4444 C.3     1  UNL1        0.0261
     27 C         142.8958  144.0033  162.1168 C.2     1  UNL1       -0.0102
     28 C         141.0371  138.3763  164.5531 C.3     1  UNL1        0.1600
     29 C         140.7344  138.9630  165.9000 C.ar    1  UNL1        0.0916
     30 N         139.3292  139.3556  166.2484 N.ar    1  UNL1       -0.2455
     31 C         139.0265  139.9423  167.5953 C.ar    1  UNL1        0.0985
     32 C         140.1289  140.1363  168.5939 C.ar    1  UNL1        0.0198
     33 C         139.8261  140.7229  169.9408 C.ar    1  UNL1        0.0016
     34 C         140.9285  140.9169  170.9393 C.ar    1  UNL1        0.0000
     35 C         142.3337  140.5243  170.5909 C.ar    1  UNL1        0.0000
     36 C         142.6364  139.9376  169.2440 C.ar    1  UNL1        0.0008
     37 C         141.5340  139.7436  168.2455 C.ar    1  UNL1        0.0123
     38 C         141.8368  139.1570  166.8985 C.ar    1  UNL1        0.0839
     39 C         143.2419  138.7644  166.5501 C.1     1  UNL1        0.1017
     40 N         144.6471  138.3717  166.2018 N.1     1  UNL1       -0.1908
@<TRIPOS>BOND
     1    24    25    1
     2    25    26    1
     3    25    27    2
     4    27    23    1
     5    23     1    1
     6     1     2   ar
     7     2    13    1
     8    13    14    1
     9    14    15    1
    10    15    16    1
    11    16    17    1
    12    17    18    1
    13    18    19    1
    14     2     3   ar
    15     3    21    1
    16    21    22    3
    17     3     4   ar
    18     4     5   ar
    19     5     6   ar
    20     6     7    2
    21     6     8   ar
    22     8    28    1
    23    28    29    1
    24    29    30   ar
    25    30    31   ar
    26    31    32   ar
    27    32    33   ar
    28    33    34   ar
    29    34    35   ar
    30    35    36   ar
    31    36    37   ar
    32    37    38   ar
    33    38    39    1
    34    39    40    3
    35     8     9   ar
    36     9    10    2
    37     9    11   ar
    38    11    12    1
    39     5     1   ar
    40    38    29   ar
    41    19    13    1
    42    11     4   ar
    43    37    32   ar
    44    17    20    1
@<TRIPOS>MOLECULE
*****
 40 44 0 0 0
SMALL
GASTEIGER

@<TRIPOS>ATOM
      1 N         138.9005  139.9078  158.7504 N.ar    1  UNL1       -0.3063
      2 C         139.9205  139.5474  157.7114 C.ar    1  UNL1        0.1240
      3 C         141.0316  138.8035  158.3909 C.ar    1  UNL1        0.1156
      4 C         140.6984  138.7040  159.8500 C.ar    1  UNL1        0.0966
      5 C         139.3812  139.3865  160.0722 C.ar    1  UNL1        0.1349
      6 C         138.7898  139.4451  161.4495 C.ar    1  UNL1        0.2819
      7 O         137.4726  140.1275  161.6716 O.2     1  UNL1       -0.2652
      8 N         139.5154  138.8212  162.6045 N.ar    1  UNL1       -0.2417
      9 C         140.8326  138.1387  162.3823 C.ar    1  UNL1        0.3342
     10 O         141.5583  137.5149  163.5373 O.2     1  UNL1       -0.2462
     11 N         141.4240  138.0801  161.0051 N.ar    1  UNL1       -0.2770
     12 C         142.7412  137.3976  160.7830 C.3     1  UNL1        0.1351
     13 N         139.8430  139.8738  156.2493 N.pl3   1  UNL1       -0.2925
     14 C         140.4706  141.1728  155.8382 C.3     1  UNL1        0.0936
     15 C         140.5583  141.7767  154.4681 C.3     1  UNL1        0.0385
     16 C         140.0402  141.2310  153.1705 C.3     1  UNL1        0.0704
     17 N         139.3063  139.9465  152.9226 N.3     1  UNL1       -0.2960
     18 C         138.9093  138.8905  153.9112 C.3     1  UNL1        0.0903
     19 C         139.1482  138.8581  155.3916 C.3     1  UNL1        0.1092
     20 H         139.8789  139.4531  152.2378 H       1  UNL1        0.1233
     21 C         142.2604  138.2553  157.7278 C.1     1  UNL1        0.1047
     22 N         143.4891  137.7070  157.0648 N.1     1  UNL1       -0.1907
     23 C         137.6239  140.6577  158.5099 C.3     1  UNL1        0.1332
     24 C         136.9324  143.4334  155.7592 C.3     1  UNL1        0.0261
     25 C         136.9063  142.1225  156.4877 C.2     1  UNL1       -0.0460
     26 C         136.1366  140.9656  155.9228 C.3     1  UNL1        0.0261
     27 C         137.6499  141.9686  157.7813 C.2     1  UNL1       -0.0102
     28 C         138.9240  138.8798  163.9817 C.3     1  UNL1        0.1600
     29 C         139.5172  139.7916  165.0146 C.ar    1  UNL1        0.0916
     30 N         140.5254  140.8264  164.6112 N.ar    1  UNL1       -0.2455
     31 C         141.1186  141.7382  165.6439 C.ar    1  UNL1        0.0985
     32 C         140.7037  141.6152  167.0802 C.ar    1  UNL1        0.0198
     33 C         141.2969  142.5270  168.1130 C.ar    1  UNL1        0.0016
     34 C         140.8820  142.4039  169.5492 C.ar    1  UNL1        0.0000
     35 C         139.8738  141.3691  169.9525 C.ar    1  UNL1        0.0000
     36 C         139.2806  140.4573  168.9198 C.ar    1  UNL1        0.0008
     37 C         139.6955  140.5804  167.4836 C.ar    1  UNL1        0.0123
     38 C         139.1023  139.6686  166.4507 C.ar    1  UNL1        0.0839
     39 C         138.0941  138.6338  166.8541 C.1     1  UNL1        0.1017
     40 N         137.0859  137.5989  167.2575 N.1     1  UNL1       -0.1908
@<TRIPOS>BOND
     1    24    25    1
     2    25    26    1
     3    25    27    2
     4    27    23    1
     5    23     1    1
     6     1     2   ar
     7     2    13    1
     8    13    14    1
     9    14    15    1
    10    15    16    1
    11    16    17    1
    12    17    18    1
    13    18    19    1
    14     2     3   ar
    15     3    21    1
    16    21    22    3
    17     3     4   ar
    18     4     5   ar
    19     5     6   ar
    20     6     7    2
    21     6     8   ar
    22     8    28    1
    23    28    29    1
    24    29    30   ar
    25    30    31   ar
    26    31    32   ar
    27    32    33   ar
    28    33    34   ar
    29    34    35   ar
    30    35    36   ar
    31    36    37   ar
    32    37    38   ar
    33    38    39    1
    34    39    40    3
    35     8     9   ar
    36     9    10    2
    37     9    11   ar
    38    11    12    1
    39     5     1   ar
    40    38    29   ar
    41    19    13    1
    42    11     4   ar
    43    37    32   ar
    44    17    20    1
@<TRIPOS>MOLECULE
*****
 40 44 0 0 0
SMALL
GASTEIGER

@<TRIPOS>ATOM
      1 N         140.3793  141.9490  164.7899 N.ar    1  UNL1       -0.3063
      2 C         141.4796  142.3014  165.7465 C.ar    1  UNL1        0.1240
      3 C         142.6128  142.8842  164.9553 C.ar    1  UNL1        0.1156
      4 C         142.2129  142.8921  163.5096 C.ar    1  UNL1        0.0966
      5 C         140.8325  142.3141  163.4074 C.ar    1  UNL1        0.1349
      6 C         140.1665  142.1950  162.0686 C.ar    1  UNL1        0.2819
      7 O         138.7861  141.6170  161.9663 O.2     1  UNL1       -0.2652
      8 N         140.8810  142.6538  160.8321 N.ar    1  UNL1       -0.2417
      9 C         142.2613  143.2318  160.9343 C.ar    1  UNL1        0.3342
     10 O         142.9758  143.6906  159.6978 O.2     1  UNL1       -0.2462
     11 N         142.9273  143.3510  162.2730 N.ar    1  UNL1       -0.2770
     12 C         144.3077  143.9290  162.3752 C.3     1  UNL1        0.1351
     13 N         141.4516  142.1053  167.2334 N.pl3   1  UNL1       -0.2925
     14 C         140.5328  143.0159  167.9928 C.3     1  UNL1        0.0936
     15 C         140.2816  143.0706  169.4705 C.3     1  UNL1        0.0385
     16 C         140.8871  142.2282  170.5540 C.3     1  UNL1        0.0704
     17 N         141.8934  141.1231  170.4272 N.3     1  UNL1       -0.2960
     18 C         142.5427  140.5874  169.1856 C.3     1  UNL1        0.0903
     19 C         142.3461  141.0245  167.7643 C.3     1  UNL1        0.1092
     20 H         141.4375  140.3130  170.8470 H       1  UNL1        0.1233
     21 C         143.9169  143.3734  165.5120 C.1     1  UNL1        0.1047
     22 N         145.2211  143.8625  166.0687 N.1     1  UNL1       -0.1907
     23 C         139.0578  141.3387  165.1521 C.3     1  UNL1        0.1332
     24 C         138.4636  137.4806  165.8672 C.3     1  UNL1        0.0261
     25 C         138.7013  138.9440  166.0947 C.2     1  UNL1       -0.0460
     26 C         138.8203  139.4763  167.4920 C.3     1  UNL1        0.0261
     27 C         138.8201  139.8752  164.9248 C.2     1  UNL1       -0.0102
     28 C         140.2150  142.5346  159.4933 C.3     1  UNL1        0.1600
     29 C         140.2015  141.2167  158.7770 C.ar    1  UNL1        0.0916
     30 N         141.0312  140.0766  159.2885 N.ar    1  UNL1       -0.2455
     31 C         141.0178  138.7587  158.5722 C.ar    1  UNL1        0.0985
     32 C         140.1746  138.5810  157.3444 C.ar    1  UNL1        0.0198
     33 C         140.1611  137.2632  156.6281 C.ar    1  UNL1        0.0016
     34 C         139.3180  137.0855  155.4003 C.ar    1  UNL1        0.0000
     35 C         138.4883  138.2257  154.8888 C.ar    1  UNL1        0.0000
     36 C         138.5017  139.5435  155.6051 C.ar    1  UNL1        0.0008
     37 C         139.3449  139.7212  156.8329 C.ar    1  UNL1        0.0123
     38 C         139.3584  141.0391  157.5492 C.ar    1  UNL1        0.0839
     39 C         138.5287  142.1792  157.0377 C.1     1  UNL1        0.1017
     40 N         137.6990  143.3194  156.5262 N.1     1  UNL1       -0.1908
@<TRIPOS>BOND
     1    24    25    1
     2    25    26    1
     3    25    27    2
     4    27    23    1
     5    23     1    1
     6     1     2   ar
     7     2    13    1
     8    13    14    1
     9    14    15    1
    10    15    16    1
    11    16    17    1
    12    17    18    1
    13    18    19    1
    14     2     3   ar
    15     3    21    1
    16    21    22    3
    17     3     4   ar
    18     4     5   ar
    19     5     6   ar
    20     6     7    2
    21     6     8   ar
    22     8    28    1
    23    28    29    1
    24    29    30   ar
    25    30    31   ar
    26    31    32   ar
    27    32    33   ar
    28    33    34   ar
    29    34    35   ar
    30    35    36   ar
    31    36    37   ar
    32    37    38   ar
    33    38    39    1
    34    39    40    3
    35     8     9   ar
    36     9    10    2
    37     9    11   ar
    38    11    12    1
    39     5     1   ar
    40    38    29   ar
    41    19    13    1
    42    11     4   ar
    43    37    32   ar
    44    17    20    1
@<TRIPOS>MOLECULE
*****
 40 44 0 0 0
SMALL
GASTEIGER

@<TRIPOS>ATOM
      1 N         140.6070  141.7742  165.3339 N.ar    1  UNL1       -0.3063
      2 C         141.8228  142.0574  166.1654 C.ar    1  UNL1        0.1240
      3 C         142.7416  142.9288  165.3615 C.ar    1  UNL1        0.1156
      4 C         142.0936  143.1843  164.0330 C.ar    1  UNL1        0.0966
      5 C         140.7744  142.4707  164.0160 C.ar    1  UNL1        0.1349
      6 C         139.8959  142.5474  162.8025 C.ar    1  UNL1        0.2819
      7 O         138.5766  141.8338  162.7854 O.2     1  UNL1       -0.2652
      8 N         140.3367  143.3375  161.6062 N.ar    1  UNL1       -0.2417
      9 C         141.6560  144.0511  161.6232 C.ar    1  UNL1        0.3342
     10 O         142.0968  144.8413  160.4269 O.2     1  UNL1       -0.2462
     11 N         142.5344  143.9745  162.8366 N.ar    1  UNL1       -0.2770
     12 C         143.8537  144.6881  162.8537 C.3     1  UNL1        0.1351
     13 N         142.0755  141.5569  167.5567 N.pl3   1  UNL1       -0.2925
     14 C         142.3453  140.0865  167.6806 C.3     1  UNL1        0.0936
     15 C         142.6312  139.2892  168.9184 C.3     1  UNL1        0.0385
     16 C         142.7180  139.7651  170.3383 C.3     1  UNL1        0.0704
     17 N         142.5403  141.1561  170.8709 N.3     1  UNL1       -0.2960
     18 C         142.2319  142.4146  170.1151 C.3     1  UNL1        0.0903
     19 C         142.0251  142.5930  168.6403 C.3     1  UNL1        0.1092
     20 H         143.4143  141.3573  171.3565 H       1  UNL1        0.1233
     21 C         144.0745  143.4528  165.8076 C.1     1  UNL1        0.1047
     22 N         145.4073  143.9768  166.2538 N.1     1  UNL1       -0.1907
     23 C         139.4304  140.9410  165.7476 C.3     1  UNL1        0.1332
     24 C         138.3436  137.1308  165.5212 C.3     1  UNL1        0.0261
     25 C         138.4771  138.5394  166.0192 C.2     1  UNL1       -0.0460
     26 C         137.7912  138.9550  167.2868 C.3     1  UNL1        0.0261
     27 C         139.2967  139.5324  165.2496 C.2     1  UNL1       -0.0102
     28 C         139.4582  143.4141  160.3928 C.3     1  UNL1        0.1600
     29 C         139.6744  142.4677  159.2493 C.ar    1  UNL1        0.0916
     30 N         139.6087  140.9868  159.4787 N.ar    1  UNL1       -0.2455
     31 C         139.8249  140.0403  158.3353 C.ar    1  UNL1        0.0985
     32 C         140.1069  140.5748  156.9624 C.ar    1  UNL1        0.0198
     33 C         140.3231  139.6283  155.8190 C.ar    1  UNL1        0.0016
     34 C         140.6051  140.1627  154.4461 C.ar    1  UNL1        0.0000
     35 C         140.6709  141.6436  154.2166 C.ar    1  UNL1        0.0000
     36 C         140.4547  142.5901  155.3601 C.ar    1  UNL1        0.0008
     37 C         140.1727  142.0556  156.7329 C.ar    1  UNL1        0.0123
     38 C         139.9564  143.0021  157.8764 C.ar    1  UNL1        0.0839
     39 C         140.0222  144.4830  157.6470 C.1     1  UNL1        0.1017
     40 N         140.0880  145.9639  157.4175 N.1     1  UNL1       -0.1908
@<TRIPOS>BOND
     1    24    25    1
     2    25    26    1
     3    25    27    2
     4    27    23    1
     5    23     1    1
     6     1     2   ar
     7     2    13    1
     8    13    14    1
     9    14    15    1
    10    15    16    1
    11    16    17    1
    12    17    18    1
    13    18    19    1
    14     2     3   ar
    15     3    21    1
    16    21    22    3
    17     3     4   ar
    18     4     5   ar
    19     5     6   ar
    20     6     7    2
    21     6     8   ar
    22     8    28    1
    23    28    29    1
    24    29    30   ar
    25    30    31   ar
    26    31    32   ar
    27    32    33   ar
    28    33    34   ar
    29    34    35   ar
    30    35    36   ar
    31    36    37   ar
    32    37    38   ar
    33    38    39    1
    34    39    40    3
    35     8     9   ar
    36     9    10    2
    37     9    11   ar
    38    11    12    1
    39     5     1   ar
    40    38    29   ar
    41    19    13    1
    42    11     4   ar
    43    37    32   ar
    44    17    20    1
@<TRIPOS>MOLECULE
*****
 40 44 0 0 0
SMALL
GASTEIGER

@<TRIPOS>ATOM
      1 N         140.3804  140.1092  161.5008 N.ar    1  UNL1       -0.3063
      2 C         141.2384  141.0950  162.2369 C.ar    1  UNL1        0.1240
      3 C         142.3657  141.4949  161.3319 C.ar    1  UNL1        0.1156
      4 C         142.2046  140.7562  160.0364 C.ar    1  UNL1        0.0966
      5 C         140.9776  139.8998  160.1408 C.ar    1  UNL1        0.1349
      6 C         140.5626  139.0399  158.9838 C.ar    1  UNL1        0.2819
      7 O         139.3356  138.1834  159.0882 O.2     1  UNL1       -0.2652
      8 N         141.3746  139.0364  157.7227 N.ar    1  UNL1       -0.2417
      9 C         142.6016  139.8929  157.6183 C.ar    1  UNL1        0.3342
     10 O         143.4136  139.8895  156.3572 O.2     1  UNL1       -0.2462
     11 N         143.0166  140.7528  158.7752 N.ar    1  UNL1       -0.2770
     12 C         144.2436  141.6093  158.6708 C.3     1  UNL1        0.1351
     13 N         141.0092  141.5934  163.6329 N.pl3   1  UNL1       -0.2925
     14 C         140.1101  142.7877  163.7583 C.3     1  UNL1        0.0936
     15 C         139.6892  143.5150  165.0007 C.3     1  UNL1        0.0385
     16 C         140.0633  143.2280  166.4247 C.3     1  UNL1        0.0704
     17 N         140.9508  142.1426  166.9579 N.3     1  UNL1       -0.2960
     18 C         141.6833  141.0762  166.1988 C.3     1  UNL1        0.0903
     19 C         141.7093  140.8318  164.7192 C.3     1  UNL1        0.1092
     20 H         140.3616  141.6302  167.6142 H       1  UNL1        0.1233
     21 C         143.4619  142.4635  161.6641 C.1     1  UNL1        0.1047
     22 N         144.5580  143.4321  161.9963 N.1     1  UNL1       -0.1907
     23 C         139.1426  139.4486  162.0314 C.3     1  UNL1        0.1332
     24 C         138.8671  137.4563  165.4525 C.3     1  UNL1        0.0261
     25 C         138.7543  138.5581  164.4410 C.2     1  UNL1       -0.0460
     26 C         138.1406  139.8711  164.8273 C.3     1  UNL1        0.0261
     27 C         139.2554  138.3469  163.0430 C.2     1  UNL1       -0.0102
     28 C         140.9596  138.1766  156.5658 C.3     1  UNL1        0.1600
     29 C         141.6236  136.8504  156.3408 C.ar    1  UNL1        0.0916
     30 N         142.6834  136.3720  157.2884 N.ar    1  UNL1       -0.2455
     31 C         143.3474  135.0460  157.0634 C.ar    1  UNL1        0.0985
     32 C         142.9516  134.1983  155.8909 C.ar    1  UNL1        0.0198
     33 C         143.6156  132.8722  155.6659 C.ar    1  UNL1        0.0016
     34 C         143.2198  132.0246  154.4934 C.ar    1  UNL1        0.0000
     35 C         142.1599  132.5031  153.5458 C.ar    1  UNL1        0.0000
     36 C         141.4959  133.8291  153.7708 C.ar    1  UNL1        0.0008
     37 C         141.8918  134.6767  154.9433 C.ar    1  UNL1        0.0123
     38 C         141.2278  136.0028  155.1683 C.ar    1  UNL1        0.0839
     39 C         140.1679  136.4813  154.2207 C.1     1  UNL1        0.1017
     40 N         139.1081  136.9597  153.2732 N.1     1  UNL1       -0.1908
@<TRIPOS>BOND
     1    24    25    1
     2    25    26    1
     3    25    27    2
     4    27    23    1
     5    23     1    1
     6     1     2   ar
     7     2    13    1
     8    13    14    1
     9    14    15    1
    10    15    16    1
    11    16    17    1
    12    17    18    1
    13    18    19    1
    14     2     3   ar
    15     3    21    1
    16    21    22    3
    17     3     4   ar
    18     4     5   ar
    19     5     6   ar
    20     6     7    2
    21     6     8   ar
    22     8    28    1
    23    28    29    1
    24    29    30   ar
    25    30    31   ar
    26    31    32   ar
    27    32    33   ar
    28    33    34   ar
    29    34    35   ar
    30    35    36   ar
    31    36    37   ar
    32    37    38   ar
    33    38    39    1
    34    39    40    3
    35     8     9   ar
    36     9    10    2
    37     9    11   ar
    38    11    12    1
    39     5     1   ar
    40    38    29   ar
    41    19    13    1
    42    11     4   ar
    43    37    32   ar
    44    17    20    1
