@<TRIPOS>MOLECULE
*****
 30 32 0 0 0
SMALL
GASTEIGER

@<TRIPOS>ATOM
      1 C         140.4764  141.9896  162.8564 C.ar    1  UNL1        0.1598
      2 C         139.1787  142.4051  162.2290 C.ar    1  UNL1        0.0397
      3 C         138.9308  143.8483  161.9043 C.ar    1  UNL1        0.0146
      4 C         139.9805  144.8762  162.2071 C.ar    1  UNL1        0.0591
      5 CL        139.7326  146.3195  161.8824 Cl      1  UNL1       -0.0822
      6 C         141.2781  144.4608  162.8344 C.ar    1  UNL1        0.0303
      7 C         141.5261  143.0175  163.1591 C.ar    1  UNL1        0.1000
      8 N         142.8237  142.6021  163.7865 N.pl3   1  UNL1       -0.2120
      9 H         143.6647  142.6907  163.2825 H       1  UNL1        0.1738
     10 S         142.8399  142.0517  165.1818 S.O2    1  UNL1        0.0737
     11 O         143.6759  140.8965  164.7164 O.2     1  UNL1       -0.1499
     12 O         142.0038  143.2069  165.6472 O.2     1  UNL1       -0.1499
     13 C         142.8561  141.5013  166.5771 C.ar    1  UNL1        0.1261
     14 C         142.6694  140.0306  166.8054 C.ar    1  UNL1        0.0211
     15 C         142.6856  139.4802  168.2007 C.ar    1  UNL1        0.0136
     16 C         142.8884  140.4005  169.3676 C.ar    1  UNL1        0.0683
     17 CL        142.9046  139.8501  170.7629 Cl      1  UNL1       -0.0814
     18 C         143.0751  141.8713  169.1393 C.ar    1  UNL1        0.0695
     19 CL        143.2780  142.7916  170.3063 Cl      1  UNL1       -0.0813
     20 C         143.0589  142.4217  167.7441 C.ar    1  UNL1        0.0324
     21 O         140.7243  140.5463  163.1810 O.3     1  UNL1       -0.4522
     22 C         139.4848  138.4188  164.0101 C.ar    1  UNL1        0.0485
     23 C         138.6394  137.7251  165.0367 C.ar    1  UNL1        0.0042
     24 C         138.1881  138.4651  166.2609 C.ar    1  UNL1        0.0002
     25 C         138.5822  139.8988  166.4585 C.ar    1  UNL1        0.0031
     26 C         139.4276  140.5925  165.4319 C.ar    1  UNL1        0.0375
     27 C         139.8789  139.8525  164.2077 C.ar    1  UNL1        0.1464
     28 O         139.1587  137.7975  161.5086 O.co2   1  UNL1       -0.5445
     29 C         139.9361  137.6788  162.7859 C.2     1  UNL1        0.0758
     30 O         141.1648  136.8201  162.8389 O.co2   1  UNL1       -0.5445
@<TRIPOS>UNITY_ATOM_ATTR
28 1
charge -1
@<TRIPOS>BOND
     1    28    29   ar
     2    29    30   ar
     3    29    22    1
     4    22    23   ar
     5    23    24   ar
     6    24    25   ar
     7    25    26   ar
     8    26    27   ar
     9    27    21    1
    10    21     1    1
    11     1     2   ar
    12     2     3   ar
    13     3     4   ar
    14     4     5    1
    15     4     6   ar
    16     6     7   ar
    17     7     8    1
    18     8    10    1
    19    10    11    2
    20    10    12    2
    21    10    13    1
    22    13    14   ar
    23    14    15   ar
    24    15    16   ar
    25    16    17    1
    26    16    18   ar
    27    18    19    1
    28    18    20   ar
    29    27    22   ar
    30     7     1   ar
    31    20    13   ar
    32     8     9    1
@<TRIPOS>MOLECULE
*****
 30 32 0 0 0
SMALL
GASTEIGER

@<TRIPOS>ATOM
      1 C         140.2183  141.9657  167.2499 C.ar    1  UNL1        0.1598
      2 C         140.6213  142.9993  168.2594 C.ar    1  UNL1        0.0397
      3 C         140.7866  142.6161  169.7002 C.ar    1  UNL1        0.0146
      4 C         140.5490  141.1992  170.1314 C.ar    1  UNL1        0.0591
      5 CL        140.7143  140.8160  171.5722 Cl      1  UNL1       -0.0822
      6 C         140.1461  140.1656  169.1219 C.ar    1  UNL1        0.0303
      7 C         139.9807  140.5488  167.6811 C.ar    1  UNL1        0.1000
      8 N         139.5778  139.5151  166.6716 N.pl3   1  UNL1       -0.2120
      9 H         138.7307  139.0253  166.7798 H       1  UNL1        0.1738
     10 S         140.4656  139.2277  165.4972 S.O2    1  UNL1        0.0737
     11 O         141.6361  139.0669  166.4213 O.2     1  UNL1       -0.1499
     12 O         139.2950  139.3884  164.5730 O.2     1  UNL1       -0.1499
     13 C         141.3533  138.9402  164.3227 C.ar    1  UNL1        0.1261
     14 C         140.9686  137.8804  163.3334 C.ar    1  UNL1        0.0211
     15 C         141.8564  137.5930  162.1590 C.ar    1  UNL1        0.0136
     16 C         143.1288  138.3654  161.9739 C.ar    1  UNL1        0.0683
     17 CL        144.0166  138.0779  160.7994 Cl      1  UNL1       -0.0814
     18 C         143.5136  139.4252  162.9632 C.ar    1  UNL1        0.0695
     19 CL        144.7860  140.1976  162.7781 Cl      1  UNL1       -0.0813
     20 C         142.6258  139.7127  164.1377 C.ar    1  UNL1        0.0324
     21 O         140.0530  142.3489  165.8091 O.3     1  UNL1       -0.4522
     22 C         140.6504  144.4548  164.4097 C.ar    1  UNL1        0.0485
     23 C         141.6753  145.3231  163.7422 C.ar    1  UNL1        0.0042
     24 C         143.1278  144.9540  163.8068 C.ar    1  UNL1        0.0002
     25 C         143.5553  143.7165  164.5388 C.ar    1  UNL1        0.0031
     26 C         142.5304  142.8482  165.2062 C.ar    1  UNL1        0.0375
     27 C         141.0780  143.2173  165.1416 C.ar    1  UNL1        0.1464
     28 O         138.4860  144.8391  163.0250 O.co2   1  UNL1       -0.5445
     29 C         139.1980  144.8239  164.3451 C.2     1  UNL1        0.0758
     30 O         138.4576  145.1778  165.6007 O.co2   1  UNL1       -0.5445
@<TRIPOS>UNITY_ATOM_ATTR
28 1
charge -1
@<TRIPOS>BOND
     1    28    29   ar
     2    29    30   ar
     3    29    22    1
     4    22    23   ar
     5    23    24   ar
     6    24    25   ar
     7    25    26   ar
     8    26    27   ar
     9    27    21    1
    10    21     1    1
    11     1     2   ar
    12     2     3   ar
    13     3     4   ar
    14     4     5    1
    15     4     6   ar
    16     6     7   ar
    17     7     8    1
    18     8    10    1
    19    10    11    2
    20    10    12    2
    21    10    13    1
    22    13    14   ar
    23    14    15   ar
    24    15    16   ar
    25    16    17    1
    26    16    18   ar
    27    18    19    1
    28    18    20   ar
    29    27    22   ar
    30     7     1   ar
    31    20    13   ar
    32     8     9    1
@<TRIPOS>MOLECULE
*****
 30 32 0 0 0
SMALL
GASTEIGER

@<TRIPOS>ATOM
      1 C         142.7294  141.7044  166.6928 C.ar    1  UNL1        0.1598
      2 C         142.4872  142.1788  168.0951 C.ar    1  UNL1        0.0397
      3 C         142.4103  141.1885  169.2191 C.ar    1  UNL1        0.0146
      4 C         142.5756  139.7239  168.9409 C.ar    1  UNL1        0.0591
      5 CL        142.4987  138.7336  170.0648 Cl      1  UNL1       -0.0822
      6 C         142.8178  139.2495  167.5386 C.ar    1  UNL1        0.0303
      7 C         142.8947  140.2398  166.4146 C.ar    1  UNL1        0.1000
      8 N         143.1369  139.7654  165.0124 N.pl3   1  UNL1       -0.2120
      9 H         144.0062  139.3727  164.7688 H       1  UNL1        0.1738
     10 S         142.0546  139.8892  163.9812 S.O2    1  UNL1        0.0737
     11 O         141.1220  139.1180  164.8674 O.2     1  UNL1       -0.1499
     12 O         142.9872  140.6605  163.0950 O.2     1  UNL1       -0.1499
     13 C         140.9723  140.0131  162.9500 C.ar    1  UNL1        0.1261
     14 C         140.9708  141.1739  162.0001 C.ar    1  UNL1        0.0211
     15 C         139.8885  141.2978  160.9689 C.ar    1  UNL1        0.0136
     16 C         138.8077  140.2609  160.8877 C.ar    1  UNL1        0.0683
     17 CL        137.7254  140.3847  159.8566 Cl      1  UNL1       -0.0814
     18 C         138.8092  139.1000  161.8377 C.ar    1  UNL1        0.0695
     19 CL        137.7284  138.0631  161.7565 Cl      1  UNL1       -0.0813
     20 C         139.8915  138.9761  162.8689 C.ar    1  UNL1        0.0324
     21 O         142.8063  142.6947  165.5688 O.3     1  UNL1       -0.4522
     22 C         141.6310  144.3392  163.9364 C.ar    1  UNL1        0.0485
     23 C         140.3754  144.9468  163.3851 C.ar    1  UNL1        0.0042
     24 C         139.0392  144.5178  163.9148 C.ar    1  UNL1        0.0002
     25 C         138.9587  143.4810  164.9958 C.ar    1  UNL1        0.0031
     26 C         140.2144  142.8734  165.5471 C.ar    1  UNL1        0.0375
     27 C         141.5505  143.3024  165.0174 C.ar    1  UNL1        0.1464
     28 O         143.9373  145.4775  164.3044 O.co2   1  UNL1       -0.5445
     29 C         142.9672  144.7682  163.4067 C.2     1  UNL1        0.0758
     30 O         143.3332  144.4881  161.9793 O.co2   1  UNL1       -0.5445
@<TRIPOS>UNITY_ATOM_ATTR
28 1
charge -1
@<TRIPOS>BOND
     1    28    29   ar
     2    29    30   ar
     3    29    22    1
     4    22    23   ar
     5    23    24   ar
     6    24    25   ar
     7    25    26   ar
     8    26    27   ar
     9    27    21    1
    10    21     1    1
    11     1     2   ar
    12     2     3   ar
    13     3     4   ar
    14     4     5    1
    15     4     6   ar
    16     6     7   ar
    17     7     8    1
    18     8    10    1
    19    10    11    2
    20    10    12    2
    21    10    13    1
    22    13    14   ar
    23    14    15   ar
    24    15    16   ar
    25    16    17    1
    26    16    18   ar
    27    18    19    1
    28    18    20   ar
    29    27    22   ar
    30     7     1   ar
    31    20    13   ar
    32     8     9    1
@<TRIPOS>MOLECULE
*****
 30 32 0 0 0
SMALL
GASTEIGER

@<TRIPOS>ATOM
      1 C         139.3603  140.7279  165.9623 C.ar    1  UNL1        0.1598
      2 C         139.8114  139.3362  166.2938 C.ar    1  UNL1        0.0397
      3 C         139.5805  138.2206  165.3180 C.ar    1  UNL1        0.0146
      4 C         138.8985  138.4967  164.0108 C.ar    1  UNL1        0.0591
      5 CL        138.6676  137.3811  163.0351 Cl      1  UNL1       -0.0822
      6 C         138.4475  139.8883  163.6794 C.ar    1  UNL1        0.0303
      7 C         138.6784  141.0040  164.6551 C.ar    1  UNL1        0.1000
      8 N         138.2273  142.3956  164.3237 N.pl3   1  UNL1       -0.2120
      9 H         137.6033  142.8665  164.9222 H       1  UNL1        0.1738
     10 S         138.7269  143.0698  163.0804 S.O2    1  UNL1        0.0737
     11 O         140.0877  143.1999  163.6977 O.2     1  UNL1       -0.1499
     12 O         137.3660  142.9397  162.4630 O.2     1  UNL1       -0.1499
     13 C         139.2265  143.7440  161.8370 C.ar    1  UNL1        0.1261
     14 C         139.7227  145.1582  161.8984 C.ar    1  UNL1        0.0211
     15 C         140.2223  145.8324  160.6551 C.ar    1  UNL1        0.0136
     16 C         140.2257  145.0924  159.3504 C.ar    1  UNL1        0.0683
     17 CL        140.7253  145.7666  158.1071 Cl      1  UNL1       -0.0814
     18 C         139.7295  143.6781  159.2889 C.ar    1  UNL1        0.0695
     19 CL        139.7329  142.9381  157.9842 Cl      1  UNL1       -0.0813
     20 C         139.2299  143.0039  160.5323 C.ar    1  UNL1        0.0324
     21 O         139.5912  141.8435  166.9381 O.3     1  UNL1       -0.4522
     22 C         140.8756  141.5946  169.1827 C.ar    1  UNL1        0.0485
     23 C         142.1569  141.6578  169.9601 C.ar    1  UNL1        0.0042
     24 C         143.4349  142.0333  169.2704 C.ar    1  UNL1        0.0002
     25 C         143.4317  142.3455  167.8033 C.ar    1  UNL1        0.0031
     26 C         142.1505  142.2822  167.0259 C.ar    1  UNL1        0.0375
     27 C         140.8724  141.9068  167.7156 C.ar    1  UNL1        0.1464
     28 O         138.9847  139.8711  169.6339 O.co2   1  UNL1       -0.5445
     29 C         139.5976  141.2191  169.8724 C.2     1  UNL1        0.0758
     30 O         138.9325  142.1918  170.8006 O.co2   1  UNL1       -0.5445
@<TRIPOS>UNITY_ATOM_ATTR
28 1
charge -1
@<TRIPOS>BOND
     1    28    29   ar
     2    29    30   ar
     3    29    22    1
     4    22    23   ar
     5    23    24   ar
     6    24    25   ar
     7    25    26   ar
     8    26    27   ar
     9    27    21    1
    10    21     1    1
    11     1     2   ar
    12     2     3   ar
    13     3     4   ar
    14     4     5    1
    15     4     6   ar
    16     6     7   ar
    17     7     8    1
    18     8    10    1
    19    10    11    2
    20    10    12    2
    21    10    13    1
    22    13    14   ar
    23    14    15   ar
    24    15    16   ar
    25    16    17    1
    26    16    18   ar
    27    18    19    1
    28    18    20   ar
    29    27    22   ar
    30     7     1   ar
    31    20    13   ar
    32     8     9    1
@<TRIPOS>MOLECULE
*****
 30 32 0 0 0
SMALL
GASTEIGER

@<TRIPOS>ATOM
      1 C         140.9926  143.0251  163.2310 C.ar    1  UNL1        0.1598
      2 C         140.3363  142.3109  164.3752 C.ar    1  UNL1        0.0397
      3 C         139.4024  143.0521  165.2854 C.ar    1  UNL1        0.0146
      4 C         139.1248  144.5075  165.0515 C.ar    1  UNL1        0.0591
      5 CL        138.1910  145.2486  165.9617 Cl      1  UNL1       -0.0822
      6 C         139.7811  145.2217  163.9073 C.ar    1  UNL1        0.0303
      7 C         140.7151  144.4805  162.9971 C.ar    1  UNL1        0.1000
      8 N         141.3714  145.1948  161.8529 N.pl3   1  UNL1       -0.2120
      9 H         142.1434  145.7830  162.0177 H       1  UNL1        0.1738
     10 S         140.8514  145.0128  160.4578 S.O2    1  UNL1        0.0737
     11 O         142.1975  144.5158  160.0209 O.2     1  UNL1       -0.1499
     12 O         139.5053  145.5099  160.8947 O.2     1  UNL1       -0.1499
     13 C         140.3314  144.8309  159.0626 C.ar    1  UNL1        0.1261
     14 C         139.6474  143.5525  158.6779 C.ar    1  UNL1        0.0211
     15 C         139.1274  143.3706  157.2827 C.ar    1  UNL1        0.0136
     16 C         139.2913  144.4670  156.2723 C.ar    1  UNL1        0.0683
     17 CL        138.7713  144.2850  154.8771 Cl      1  UNL1       -0.0814
     18 C         139.9753  145.7454  156.6570 C.ar    1  UNL1        0.0695
     19 CL        140.1392  146.8418  155.6465 Cl      1  UNL1       -0.0813
     20 C         140.4953  145.9273  158.0521 C.ar    1  UNL1        0.0324
     21 O         141.9265  142.2840  162.3208 O.3     1  UNL1       -0.4522
     22 C         144.2093  142.0477  163.5386 C.ar    1  UNL1        0.0485
     23 C         145.2902  141.1827  164.1160 C.ar    1  UNL1        0.0042
     24 C         145.1692  139.6890  164.0530 C.ar    1  UNL1        0.0002
     25 C         143.9674  139.0602  163.4126 C.ar    1  UNL1        0.0031
     26 C         142.8865  139.9252  162.8352 C.ar    1  UNL1        0.0375
     27 C         143.0075  141.4190  162.8982 C.ar    1  UNL1        0.1464
     28 O         144.3146  144.2399  164.9290 O.co2   1  UNL1       -0.5445
     29 C         144.3303  143.5415  163.6016 C.2     1  UNL1        0.0758
     30 O         144.4669  144.3369  162.3373 O.co2   1  UNL1       -0.5445
@<TRIPOS>UNITY_ATOM_ATTR
28 1
charge -1
@<TRIPOS>BOND
     1    28    29   ar
     2    29    30   ar
     3    29    22    1
     4    22    23   ar
     5    23    24   ar
     6    24    25   ar
     7    25    26   ar
     8    26    27   ar
     9    27    21    1
    10    21     1    1
    11     1     2   ar
    12     2     3   ar
    13     3     4   ar
    14     4     5    1
    15     4     6   ar
    16     6     7   ar
    17     7     8    1
    18     8    10    1
    19    10    11    2
    20    10    12    2
    21    10    13    1
    22    13    14   ar
    23    14    15   ar
    24    15    16   ar
    25    16    17    1
    26    16    18   ar
    27    18    19    1
    28    18    20   ar
    29    27    22   ar
    30     7     1   ar
    31    20    13   ar
    32     8     9    1
@<TRIPOS>MOLECULE
*****
 30 32 0 0 0
SMALL
GASTEIGER

@<TRIPOS>ATOM
      1 C         140.1839  142.1383  162.5538 C.ar    1  UNL1        0.1598
      2 C         140.8208  142.7635  161.3481 C.ar    1  UNL1        0.0397
      3 C         140.6224  144.2235  161.0672 C.ar    1  UNL1        0.0146
      4 C         139.7870  145.0584  161.9919 C.ar    1  UNL1        0.0591
      5 CL        139.5886  146.5184  161.7109 Cl      1  UNL1       -0.0822
      6 C         139.1501  144.4334  163.1975 C.ar    1  UNL1        0.0303
      7 C         139.3486  142.9733  163.4785 C.ar    1  UNL1        0.1000
      8 N         138.7117  142.3482  164.6841 N.pl3   1  UNL1       -0.2120
      9 H         137.7398  142.1919  164.7021 H       1  UNL1        0.1738
     10 S         139.5555  141.9613  165.8624 S.O2    1  UNL1        0.0737
     11 O         138.9335  140.5963  165.8596 O.2     1  UNL1       -0.1499
     12 O         140.1775  143.3262  165.8652 O.2     1  UNL1       -0.1499
     13 C         140.3993  141.5744  167.0406 C.ar    1  UNL1        0.1261
     14 C         140.7661  140.1367  167.2606 C.ar    1  UNL1        0.0211
     15 C         141.6099  139.7497  168.4389 C.ar    1  UNL1        0.0136
     16 C         142.0869  140.8005  169.3971 C.ar    1  UNL1        0.0683
     17 CL        142.9307  140.4135  170.5754 Cl      1  UNL1       -0.0814
     18 C         141.7200  142.2383  169.1772 C.ar    1  UNL1        0.0695
     19 CL        142.1970  143.2890  170.1355 Cl      1  UNL1       -0.0813
     20 C         140.8762  142.6252  167.9990 C.ar    1  UNL1        0.0324
     21 O         140.3824  140.6784  162.8347 O.3     1  UNL1       -0.4522
     22 C         141.6748  138.7973  164.0762 C.ar    1  UNL1        0.0485
     23 C         142.8740  138.3391  164.8520 C.ar    1  UNL1        0.0042
     24 C         143.9800  139.3037  165.1623 C.ar    1  UNL1        0.0002
     25 C         143.8868  140.7266  164.6967 C.ar    1  UNL1        0.0031
     26 C         142.6876  141.1847  163.9209 C.ar    1  UNL1        0.0375
     27 C         141.5816  140.2201  163.6106 C.ar    1  UNL1        0.1464
     28 O         140.4407  137.2570  162.3867 O.co2   1  UNL1       -0.5445
     29 C         140.5689  137.8326  163.7659 C.2     1  UNL1        0.0758
     30 O         139.5911  137.4436  164.8348 O.co2   1  UNL1       -0.5445
@<TRIPOS>UNITY_ATOM_ATTR
28 1
charge -1
@<TRIPOS>BOND
     1    28    29   ar
     2    29    30   ar
     3    29    22    1
     4    22    23   ar
     5    23    24   ar
     6    24    25   ar
     7    25    26   ar
     8    26    27   ar
     9    27    21    1
    10    21     1    1
    11     1     2   ar
    12     2     3   ar
    13     3     4   ar
    14     4     5    1
    15     4     6   ar
    16     6     7   ar
    17     7     8    1
    18     8    10    1
    19    10    11    2
    20    10    12    2
    21    10    13    1
    22    13    14   ar
    23    14    15   ar
    24    15    16   ar
    25    16    17    1
    26    16    18   ar
    27    18    19    1
    28    18    20   ar
    29    27    22   ar
    30     7     1   ar
    31    20    13   ar
    32     8     9    1
@<TRIPOS>MOLECULE
*****
 30 32 0 0 0
SMALL
GASTEIGER

@<TRIPOS>ATOM
      1 C         141.5693  141.5122  161.3655 C.ar    1  UNL1        0.1598
      2 C         141.4031  140.5114  160.2606 C.ar    1  UNL1        0.0397
      3 C         142.2019  139.2419  160.2721 C.ar    1  UNL1        0.0146
      4 C         143.1669  138.9731  161.3886 C.ar    1  UNL1        0.0591
      5 CL        143.9657  137.7036  161.4002 Cl      1  UNL1       -0.0822
      6 C         143.3331  139.9738  162.4935 C.ar    1  UNL1        0.0303
      7 C         142.5343  141.2434  162.4820 C.ar    1  UNL1        0.1000
      8 N         142.7005  142.2442  163.5869 N.pl3   1  UNL1       -0.2120
      9 H         142.7857  143.2018  163.3750 H       1  UNL1        0.1738
     10 S         142.7370  141.7859  165.0147 S.O2    1  UNL1        0.0737
     11 O         141.2949  141.3837  164.9225 O.2     1  UNL1       -0.1499
     12 O         144.1792  142.1880  165.1069 O.2     1  UNL1       -0.1499
     13 C         142.7735  141.3275  166.4425 C.ar    1  UNL1        0.1261
     14 C         142.4589  139.9004  166.7803 C.ar    1  UNL1        0.0211
     15 C         142.4954  139.4421  168.2081 C.ar    1  UNL1        0.0136
     16 C         142.8466  140.4109  169.2981 C.ar    1  UNL1        0.0683
     17 CL        142.8831  139.9526  170.7259 Cl      1  UNL1       -0.0814
     18 C         143.1612  141.8382  168.9602 C.ar    1  UNL1        0.0695
     19 CL        143.5123  142.8070  170.0502 Cl      1  UNL1       -0.0813
     20 C         143.1247  142.2965  167.5324 C.ar    1  UNL1        0.0324
     21 O         140.7705  142.7818  161.3539 O.3     1  UNL1       -0.4522
     22 C         139.6412  144.3060  163.1292 C.ar    1  UNL1        0.0485
     23 C         138.5739  144.5299  164.1591 C.ar    1  UNL1        0.0042
     24 C         137.5685  143.4536  164.4436 C.ar    1  UNL1        0.0002
     25 C         137.6305  142.1534  163.6983 C.ar    1  UNL1        0.0031
     26 C         138.6978  141.9295  162.6684 C.ar    1  UNL1        0.0375
     27 C         139.7032  143.0058  162.3839 C.ar    1  UNL1        0.1464
     28 O         140.2877  146.5234  161.9397 O.co2   1  UNL1       -0.5445
     29 C         140.6465  145.3822  162.8447 C.2     1  UNL1        0.0758
     30 O         142.0106  145.3174  163.4652 O.co2   1  UNL1       -0.5445
@<TRIPOS>UNITY_ATOM_ATTR
28 1
charge -1
@<TRIPOS>BOND
     1    28    29   ar
     2    29    30   ar
     3    29    22    1
     4    22    23   ar
     5    23    24   ar
     6    24    25   ar
     7    25    26   ar
     8    26    27   ar
     9    27    21    1
    10    21     1    1
    11     1     2   ar
    12     2     3   ar
    13     3     4   ar
    14     4     5    1
    15     4     6   ar
    16     6     7   ar
    17     7     8    1
    18     8    10    1
    19    10    11    2
    20    10    12    2
    21    10    13    1
    22    13    14   ar
    23    14    15   ar
    24    15    16   ar
    25    16    17    1
    26    16    18   ar
    27    18    19    1
    28    18    20   ar
    29    27    22   ar
    30     7     1   ar
    31    20    13   ar
    32     8     9    1
@<TRIPOS>MOLECULE
*****
 30 32 0 0 0
SMALL
GASTEIGER

@<TRIPOS>ATOM
      1 C         141.3417  142.2729  162.1392 C.ar    1  UNL1        0.1598
      2 C         140.1371  142.5596  161.2925 C.ar    1  UNL1        0.0397
      3 C         139.5947  143.9556  161.2083 C.ar    1  UNL1        0.0146
      4 C         140.2569  145.0648  161.9706 C.ar    1  UNL1        0.0591
      5 CL        139.7145  146.4607  161.8863 Cl      1  UNL1       -0.0822
      6 C         141.4615  144.7781  162.8172 C.ar    1  UNL1        0.0303
      7 C         142.0039  143.3821  162.9015 C.ar    1  UNL1        0.1000
      8 N         143.2085  143.0954  163.7481 N.pl3   1  UNL1       -0.2120
      9 H         144.0881  143.4546  163.4903 H       1  UNL1        0.1738
     10 S         143.0728  142.2614  164.9875 S.O2    1  UNL1        0.0737
     11 O         144.2313  141.4169  164.5460 O.2     1  UNL1       -0.1499
     12 O         141.9144  143.1058  165.4290 O.2     1  UNL1       -0.1499
     13 C         142.9372  141.4273  166.2268 C.ar    1  UNL1        0.1261
     14 C         142.9358  139.9307  166.1273 C.ar    1  UNL1        0.0211
     15 C         142.8002  139.0967  167.3666 C.ar    1  UNL1        0.0136
     16 C         142.6659  139.7593  168.7056 C.ar    1  UNL1        0.0683
     17 CL        142.5303  138.9253  169.9449 Cl      1  UNL1       -0.0814
     18 C         142.6673  141.2561  168.8052 C.ar    1  UNL1        0.0695
     19 CL        142.5331  141.9187  170.1442 Cl      1  UNL1       -0.0813
     20 C         142.8029  142.0901  167.5659 C.ar    1  UNL1        0.0324
     21 O         141.8841  140.8769  162.2235 O.3     1  UNL1       -0.4522
     22 C         141.5639  138.3978  162.9318 C.ar    1  UNL1        0.0485
     23 C         140.8431  137.3608  163.7410 C.ar    1  UNL1        0.0042
     24 C         139.7216  137.7657  164.6511 C.ar    1  UNL1        0.0002
     25 C         139.3209  139.2076  164.7520 C.ar    1  UNL1        0.0031
     26 C         140.0417  140.2447  163.9428 C.ar    1  UNL1        0.0375
     27 C         141.1632  139.8398  163.0327 C.ar    1  UNL1        0.1464
     28 O         144.1033  138.3171  162.3886 O.co2   1  UNL1       -0.5445
     29 C         142.6854  137.9930  162.0217 C.2     1  UNL1        0.0758
     30 O         142.3891  137.2640  160.7447 O.co2   1  UNL1       -0.5445
@<TRIPOS>UNITY_ATOM_ATTR
28 1
charge -1
@<TRIPOS>BOND
     1    28    29   ar
     2    29    30   ar
     3    29    22    1
     4    22    23   ar
     5    23    24   ar
     6    24    25   ar
     7    25    26   ar
     8    26    27   ar
     9    27    21    1
    10    21     1    1
    11     1     2   ar
    12     2     3   ar
    13     3     4   ar
    14     4     5    1
    15     4     6   ar
    16     6     7   ar
    17     7     8    1
    18     8    10    1
    19    10    11    2
    20    10    12    2
    21    10    13    1
    22    13    14   ar
    23    14    15   ar
    24    15    16   ar
    25    16    17    1
    26    16    18   ar
    27    18    19    1
    28    18    20   ar
    29    27    22   ar
    30     7     1   ar
    31    20    13   ar
    32     8     9    1
@<TRIPOS>MOLECULE
*****
 30 32 0 0 0
SMALL
GASTEIGER

@<TRIPOS>ATOM
      1 C         140.5840  141.9400  167.1255 C.ar    1  UNL1        0.1598
      2 C         140.3548  142.9569  168.2042 C.ar    1  UNL1        0.0397
      3 C         140.4227  142.5490  169.6460 C.ar    1  UNL1        0.0146
      4 C         140.7196  141.1242  170.0093 C.ar    1  UNL1        0.0591
      5 CL        140.7874  140.7163  171.4511 Cl      1  UNL1       -0.0822
      6 C         140.9487  140.1074  168.9306 C.ar    1  UNL1        0.0303
      7 C         140.8809  140.5153  167.4887 C.ar    1  UNL1        0.1000
      8 N         141.1100  139.4984  166.4101 N.pl3   1  UNL1       -0.2120
      9 H         141.8095  138.8142  166.5191 H       1  UNL1        0.1738
     10 S         140.2735  139.5240  165.1653 S.O2    1  UNL1        0.0737
     11 O         139.0388  139.3140  165.9907 O.2     1  UNL1       -0.1499
     12 O         141.5082  139.7341  164.3398 O.2     1  UNL1       -0.1499
     13 C         139.4369  139.5496  163.9205 C.ar    1  UNL1        0.1261
     14 C         138.9025  138.2696  163.3495 C.ar    1  UNL1        0.0211
     15 C         138.0660  138.2952  162.1048 C.ar    1  UNL1        0.0136
     16 C         137.7638  139.6007  161.4309 C.ar    1  UNL1        0.0683
     17 CL        136.9272  139.6263  160.1861 Cl      1  UNL1       -0.0814
     18 C         138.2982  140.8808  162.0018 C.ar    1  UNL1        0.0695
     19 CL        137.9961  142.1864  161.3279 Cl      1  UNL1       -0.0813
     20 C         139.1348  140.8552  163.2466 C.ar    1  UNL1        0.0324
     21 O         140.5162  142.3479  165.6836 O.3     1  UNL1       -0.4522
     22 C         141.1736  144.4832  164.3575 C.ar    1  UNL1        0.0485
     23 C         142.2277  145.3817  163.7819 C.ar    1  UNL1        0.0042
     24 C         143.6786  145.0437  163.9569 C.ar    1  UNL1        0.0002
     25 C         144.0754  143.8071  164.7074 C.ar    1  UNL1        0.0031
     26 C         143.0212  142.9085  165.2830 C.ar    1  UNL1        0.0375
     27 C         141.5703  143.2466  165.1080 C.ar    1  UNL1        0.1464
     28 O         138.8495  145.0239  165.3851 O.co2   1  UNL1       -0.5445
     29 C         139.7227  144.8212  164.1825 C.2     1  UNL1        0.0758
     30 O         139.1450  144.9565  162.8048 O.co2   1  UNL1       -0.5445
@<TRIPOS>UNITY_ATOM_ATTR
28 1
charge -1
@<TRIPOS>BOND
     1    28    29   ar
     2    29    30   ar
     3    29    22    1
     4    22    23   ar
     5    23    24   ar
     6    24    25   ar
     7    25    26   ar
     8    26    27   ar
     9    27    21    1
    10    21     1    1
    11     1     2   ar
    12     2     3   ar
    13     3     4   ar
    14     4     5    1
    15     4     6   ar
    16     6     7   ar
    17     7     8    1
    18     8    10    1
    19    10    11    2
    20    10    12    2
    21    10    13    1
    22    13    14   ar
    23    14    15   ar
    24    15    16   ar
    25    16    17    1
    26    16    18   ar
    27    18    19    1
    28    18    20   ar
    29    27    22   ar
    30     7     1   ar
    31    20    13   ar
    32     8     9    1
