@<TRIPOS>MOLECULE
*****
 24 27 0 0 0
SMALL
GASTEIGER

@<TRIPOS>ATOM
      1 N         141.2983  139.2505  163.3047 N.ar    1  UNL1       -0.2563
      2 C         142.1084  140.1561  164.1843 C.ar    1  UNL1        0.1851
      3 N         141.6370  140.4714  165.5730 N.ar    1  UNL1       -0.2244
      4 C         140.3554  139.8811  166.0820 C.ar    1  UNL1        0.0941
      5 C         139.6432  140.0100  167.3959 C.ar    1  UNL1        0.0248
      6 C         138.3928  139.1841  167.3283 C.ar    1  UNL1        0.0371
      7 S         138.3323  138.5449  165.9727 S.2     1  UNL1       -0.0802
      8 C         139.5452  138.9756  165.2025 C.ar    1  UNL1        0.1036
      9 C         140.0166  138.6603  163.8138 C.ar    1  UNL1        0.2733
     10 O         139.2064  137.7548  162.9343 O.2     1  UNL1       -0.2660
     11 C         142.7125  138.3046  159.1388 C.ar    1  UNL1        0.1388
     12 C         143.3035  137.5828  160.3135 C.ar    1  UNL1        0.0384
     13 C         142.8320  137.8982  161.7021 C.ar    1  UNL1        0.0208
     14 C         141.7697  138.9352  161.9161 C.ar    1  UNL1        0.0685
     15 C         141.1787  139.6570  160.7414 C.ar    1  UNL1        0.0208
     16 C         141.6501  139.3417  159.3528 C.ar    1  UNL1        0.0384
     17 C         142.5496  136.8700  156.9788 C.3     1  UNL1        0.2525
     18 O         143.1839  137.9893  157.7502 O.3     1  UNL1       -0.4714
     19 C         140.1010  140.8222  168.5710 C.ar    1  UNL1        0.0020
     20 C         140.3823  142.2864  168.4068 C.ar    1  UNL1        0.0001
     21 C         140.8401  143.0986  169.5818 C.ar    1  UNL1        0.0000
     22 C         141.0166  142.4466  170.9211 C.ar    1  UNL1        0.0000
     23 C         140.7352  140.9824  171.0853 C.ar    1  UNL1        0.0000
     24 C         140.2774  140.1701  169.9102 C.ar    1  UNL1        0.0001
@<TRIPOS>BOND
     1    17    18    1
     2    18    11    1
     3    11    12   ar
     4    12    13   ar
     5    13    14   ar
     6    14     1    1
     7     1     2   ar
     8     2     3   ar
     9     3     4   ar
    10     4     5   ar
    11     5    19    1
    12    19    20   ar
    13    20    21   ar
    14    21    22   ar
    15    22    23   ar
    16    23    24   ar
    17     5     6   ar
    18     6     7   ar
    19     7     8   ar
    20     8     9   ar
    21     9    10    2
    22    14    15   ar
    23    15    16   ar
    24    16    11   ar
    25     9     1   ar
    26     8     4   ar
    27    24    19   ar
@<TRIPOS>MOLECULE
*****
 24 27 0 0 0
SMALL
GASTEIGER

@<TRIPOS>ATOM
      1 N         141.5728  139.5129  162.9948 N.ar    1  UNL1       -0.2563
      2 C         142.5667  140.3954  163.6901 C.ar    1  UNL1        0.1851
      3 N         142.3309  140.8168  165.1103 N.ar    1  UNL1       -0.2244
      4 C         141.1012  140.3559  165.8351 C.ar    1  UNL1        0.0941
      5 C         140.6037  140.6069  167.2277 C.ar    1  UNL1        0.0248
      6 C         139.3023  139.8796  167.3931 C.ar    1  UNL1        0.0371
      7 S         138.9955  139.1791  166.1027 S.2     1  UNL1       -0.0802
      8 C         140.1073  139.4734  165.1398 C.ar    1  UNL1        0.1036
      9 C         140.3430  139.0520  163.7197 C.ar    1  UNL1        0.2733
     10 O         139.3491  138.1696  163.0244 O.2     1  UNL1       -0.2660
     11 C         142.2801  138.2485  158.7344 C.ar    1  UNL1        0.1388
     12 C         142.9261  137.4933  159.8580 C.ar    1  UNL1        0.0384
     13 C         142.6903  137.9148  161.2781 C.ar    1  UNL1        0.0208
     14 C         141.8085  139.0915  161.5747 C.ar    1  UNL1        0.0685
     15 C         141.1625  139.8466  160.4511 C.ar    1  UNL1        0.0208
     16 C         141.3982  139.4251  159.0310 C.ar    1  UNL1        0.0384
     17 C         142.8327  136.3949  156.9997 C.3     1  UNL1        0.2525
     18 O         142.5158  137.8270  157.3143 O.3     1  UNL1       -0.4714
     19 C         141.2875  141.4391  168.2716 C.ar    1  UNL1        0.0020
     20 C         142.6860  141.1053  168.6993 C.ar    1  UNL1        0.0001
     21 C         143.3699  141.9375  169.7432 C.ar    1  UNL1        0.0000
     22 C         142.6553  143.1034  170.3596 C.ar    1  UNL1        0.0000
     23 C         141.2568  143.4372  169.9319 C.ar    1  UNL1        0.0000
     24 C         140.5729  142.6050  168.8880 C.ar    1  UNL1        0.0001
@<TRIPOS>BOND
     1    17    18    1
     2    18    11    1
     3    11    12   ar
     4    12    13   ar
     5    13    14   ar
     6    14     1    1
     7     1     2   ar
     8     2     3   ar
     9     3     4   ar
    10     4     5   ar
    11     5    19    1
    12    19    20   ar
    13    20    21   ar
    14    21    22   ar
    15    22    23   ar
    16    23    24   ar
    17     5     6   ar
    18     6     7   ar
    19     7     8   ar
    20     8     9   ar
    21     9    10    2
    22    14    15   ar
    23    15    16   ar
    24    16    11   ar
    25     9     1   ar
    26     8     4   ar
    27    24    19   ar
@<TRIPOS>MOLECULE
*****
 24 27 0 0 0
SMALL
GASTEIGER

@<TRIPOS>ATOM
      1 N         140.7034  142.7034  162.6673 N.ar    1  UNL1       -0.2563
      2 C         141.5986  142.8902  163.8563 C.ar    1  UNL1        0.1851
      3 N         141.3555  142.1020  165.1092 N.ar    1  UNL1       -0.2244
      4 C         140.2173  141.1271  165.1730 C.ar    1  UNL1        0.0941
      5 C         139.7355  140.2166  166.2635 C.ar    1  UNL1        0.0248
      6 C         138.5426  139.4672  165.7484 C.ar    1  UNL1        0.0371
      7 S         138.2872  139.9145  164.3396 S.2     1  UNL1       -0.0802
      8 C         139.3222  140.9403  163.9840 C.ar    1  UNL1        0.1036
      9 C         139.5652  141.7285  162.7311 C.ar    1  UNL1        0.2733
     10 O         138.6701  141.5417  161.5421 O.2     1  UNL1       -0.2660
     11 C         141.4325  145.0679  158.9086 C.ar    1  UNL1        0.1388
     12 C         142.2348  143.8308  159.1839 C.ar    1  UNL1        0.0384
     13 C         141.9918  143.0426  160.4369 C.ar    1  UNL1        0.0208
     14 C         140.9464  143.4916  161.4144 C.ar    1  UNL1        0.0685
     15 C         140.1441  144.7287  161.1391 C.ar    1  UNL1        0.0208
     16 C         140.3872  145.5169  159.8863 C.ar    1  UNL1        0.0384
     17 C         140.5257  146.2207  156.7641 C.3     1  UNL1        0.2525
     18 O         141.6755  145.8561  157.6558 O.3     1  UNL1       -0.4714
     19 C         140.3404  140.0797  167.6292 C.ar    1  UNL1        0.0020
     20 C         141.7913  139.7280  167.7751 C.ar    1  UNL1        0.0001
     21 C         142.3963  139.5910  169.1408 C.ar    1  UNL1        0.0000
     22 C         141.5504  139.8058  170.3608 C.ar    1  UNL1        0.0000
     23 C         140.0995  140.1575  170.2149 C.ar    1  UNL1        0.0000
     24 C         139.4945  140.2945  168.8492 C.ar    1  UNL1        0.0001
@<TRIPOS>BOND
     1    17    18    1
     2    18    11    1
     3    11    12   ar
     4    12    13   ar
     5    13    14   ar
     6    14     1    1
     7     1     2   ar
     8     2     3   ar
     9     3     4   ar
    10     4     5   ar
    11     5    19    1
    12    19    20   ar
    13    20    21   ar
    14    21    22   ar
    15    22    23   ar
    16    23    24   ar
    17     5     6   ar
    18     6     7   ar
    19     7     8   ar
    20     8     9   ar
    21     9    10    2
    22    14    15   ar
    23    15    16   ar
    24    16    11   ar
    25     9     1   ar
    26     8     4   ar
    27    24    19   ar
@<TRIPOS>MOLECULE
*****
 24 27 0 0 0
SMALL
GASTEIGER

@<TRIPOS>ATOM
      1 N         140.8892  143.4071  162.2764 N.ar    1  UNL1       -0.2563
      2 C         139.7068  143.0701  163.1356 C.ar    1  UNL1        0.1851
      3 N         139.9082  142.6862  164.5717 N.ar    1  UNL1       -0.2244
      4 C         141.2921  142.6394  165.1485 C.ar    1  UNL1        0.0941
      5 C         141.7971  142.2987  166.5192 C.ar    1  UNL1        0.0248
      6 C         143.2917  142.4253  166.5072 C.ar    1  UNL1        0.0371
      7 S         143.7104  142.8441  165.1290 S.2     1  UNL1       -0.0802
      8 C         142.4745  142.9764  164.2893 C.ar    1  UNL1        0.1036
      9 C         142.2731  143.3603  162.8533 C.ar    1  UNL1        0.2733
     10 O         143.4556  143.6974  161.9941 O.2     1  UNL1       -0.2660
     11 C         140.2851  144.5587  157.9685 C.ar    1  UNL1        0.1388
     12 C         140.4435  143.1151  158.3438 C.ar    1  UNL1        0.0384
     13 C         140.6449  142.7313  159.7798 C.ar    1  UNL1        0.0208
     14 C         140.6879  143.7910  160.8405 C.ar    1  UNL1        0.0685
     15 C         140.5294  145.2346  160.4652 C.ar    1  UNL1        0.0208
     16 C         140.3280  145.6185  159.0292 C.ar    1  UNL1        0.0384
     17 C         139.7019  146.3494  156.1787 C.3     1  UNL1        0.2525
     18 O         140.0837  144.9426  156.5325 O.3     1  UNL1       -0.4714
     19 C         140.9554  141.9013  167.6954 C.ar    1  UNL1        0.0020
     20 C         140.8050  142.8350  168.8597 C.ar    1  UNL1        0.0001
     21 C         139.9632  142.4377  170.0360 C.ar    1  UNL1        0.0000
     22 C         139.2718  141.1066  170.0479 C.ar    1  UNL1        0.0000
     23 C         139.4222  140.1729  168.8836 C.ar    1  UNL1        0.0000
     24 C         140.2640  140.5703  167.7073 C.ar    1  UNL1        0.0001
@<TRIPOS>BOND
     1    17    18    1
     2    18    11    1
     3    11    12   ar
     4    12    13   ar
     5    13    14   ar
     6    14     1    1
     7     1     2   ar
     8     2     3   ar
     9     3     4   ar
    10     4     5   ar
    11     5    19    1
    12    19    20   ar
    13    20    21   ar
    14    21    22   ar
    15    22    23   ar
    16    23    24   ar
    17     5     6   ar
    18     6     7   ar
    19     7     8   ar
    20     8     9   ar
    21     9    10    2
    22    14    15   ar
    23    15    16   ar
    24    16    11   ar
    25     9     1   ar
    26     8     4   ar
    27    24    19   ar
@<TRIPOS>MOLECULE
*****
 24 27 0 0 0
SMALL
GASTEIGER

@<TRIPOS>ATOM
      1 N         140.0894  140.1973  163.3099 N.ar    1  UNL1       -0.2563
      2 C         139.6738  141.1666  164.3766 C.ar    1  UNL1        0.1851
      3 N         140.3479  141.1418  165.7164 N.ar    1  UNL1       -0.2244
      4 C         141.4375  140.1478  165.9895 C.ar    1  UNL1        0.0941
      5 C         142.2776  139.8879  167.2047 C.ar    1  UNL1        0.0248
      6 C         143.2123  138.7580  166.8892 C.ar    1  UNL1        0.0371
      7 S         142.9499  138.3195  165.4789 S.2     1  UNL1       -0.0802
      8 C         141.8531  139.1785  164.9228 C.ar    1  UNL1        0.1036
      9 C         141.1790  139.2032  163.5831 C.ar    1  UNL1        0.2733
     10 O         141.5946  138.2339  162.5164 O.2     1  UNL1       -0.2660
     11 C         138.0671  140.2714  159.2906 C.ar    1  UNL1        0.1388
     12 C         137.3609  139.6807  160.4747 C.ar    1  UNL1        0.0384
     13 C         138.0350  139.6560  161.8145 C.ar    1  UNL1        0.0208
     14 C         139.4153  140.2220  161.9701 C.ar    1  UNL1        0.0685
     15 C         140.1216  140.8127  160.7860 C.ar    1  UNL1        0.0208
     16 C         139.4476  140.8374  159.4462 C.ar    1  UNL1        0.0384
     17 C         137.3192  141.5760  157.1719 C.3     1  UNL1        0.2525
     18 O         137.3931  140.2961  157.9508 O.3     1  UNL1       -0.4714
     19 C         142.1970  140.6280  168.5069 C.ar    1  UNL1        0.0020
     20 C         142.9099  141.9376  168.6707 C.ar    1  UNL1        0.0001
     21 C         142.8293  142.6778  169.9729 C.ar    1  UNL1        0.0000
     22 C         142.0359  142.1083  171.1113 C.ar    1  UNL1        0.0000
     23 C         141.3230  140.7988  170.9476 C.ar    1  UNL1        0.0000
     24 C         141.4035  140.0586  169.6454 C.ar    1  UNL1        0.0001
@<TRIPOS>BOND
     1    17    18    1
     2    18    11    1
     3    11    12   ar
     4    12    13   ar
     5    13    14   ar
     6    14     1    1
     7     1     2   ar
     8     2     3   ar
     9     3     4   ar
    10     4     5   ar
    11     5    19    1
    12    19    20   ar
    13    20    21   ar
    14    21    22   ar
    15    22    23   ar
    16    23    24   ar
    17     5     6   ar
    18     6     7   ar
    19     7     8   ar
    20     8     9   ar
    21     9    10    2
    22    14    15   ar
    23    15    16   ar
    24    16    11   ar
    25     9     1   ar
    26     8     4   ar
    27    24    19   ar
@<TRIPOS>MOLECULE
*****
 24 27 0 0 0
SMALL
GASTEIGER

@<TRIPOS>ATOM
      1 N         141.3783  143.5412  161.8797 N.ar    1  UNL1       -0.2563
      2 C         141.8185  144.4078  163.0223 C.ar    1  UNL1        0.1851
      3 N         141.7576  143.8849  164.4269 N.ar    1  UNL1       -0.2244
      4 C         141.2566  142.4956  164.6890 C.ar    1  UNL1        0.0941
      5 C         141.0841  141.7134  165.9573 C.ar    1  UNL1        0.0248
      6 C         140.5373  140.3635  165.5986 C.ar    1  UNL1        0.0371
      7 S         140.3719  140.3113  164.1087 S.2     1  UNL1       -0.0802
      8 C         140.8164  141.6291  163.5465 C.ar    1  UNL1        0.1036
      9 C         140.8773  142.1518  162.1419 C.ar    1  UNL1        0.2733
     10 O         140.4371  141.2853  160.9994 O.2     1  UNL1       -0.2660
     11 C         141.5609  145.1096  157.6659 C.ar    1  UNL1        0.1388
     12 C         140.4401  145.5241  158.5725 C.ar    1  UNL1        0.0384
     13 C         140.3792  145.0013  159.9772 C.ar    1  UNL1        0.0208
     14 C         141.4392  144.0640  160.4751 C.ar    1  UNL1        0.0685
     15 C         142.5600  143.6495  159.5685 C.ar    1  UNL1        0.0208
     16 C         142.6208  144.1722  158.1639 C.ar    1  UNL1        0.0384
     17 C         140.4460  146.3607  155.6804 C.3     1  UNL1        0.2525
     18 O         141.6217  145.6323  156.2612 O.3     1  UNL1       -0.4714
     19 C         141.4024  142.1965  167.3412 C.ar    1  UNL1        0.0020
     20 C         142.7361  141.8884  167.9548 C.ar    1  UNL1        0.0001
     21 C         143.0545  142.3714  169.3388 C.ar    1  UNL1        0.0000
     22 C         142.0393  143.1625  170.1092 C.ar    1  UNL1        0.0000
     23 C         140.7056  143.4705  169.4956 C.ar    1  UNL1        0.0000
     24 C         140.3872  142.9875  168.1116 C.ar    1  UNL1        0.0001
@<TRIPOS>BOND
     1    17    18    1
     2    18    11    1
     3    11    12   ar
     4    12    13   ar
     5    13    14   ar
     6    14     1    1
     7     1     2   ar
     8     2     3   ar
     9     3     4   ar
    10     4     5   ar
    11     5    19    1
    12    19    20   ar
    13    20    21   ar
    14    21    22   ar
    15    22    23   ar
    16    23    24   ar
    17     5     6   ar
    18     6     7   ar
    19     7     8   ar
    20     8     9   ar
    21     9    10    2
    22    14    15   ar
    23    15    16   ar
    24    16    11   ar
    25     9     1   ar
    26     8     4   ar
    27    24    19   ar
@<TRIPOS>MOLECULE
*****
 24 27 0 0 0
SMALL
GASTEIGER

@<TRIPOS>ATOM
      1 N         141.8476  140.1999  163.2504 N.ar    1  UNL1       -0.2563
      2 C         142.5287  141.0083  164.3146 C.ar    1  UNL1        0.1851
      3 N         141.9372  141.0863  165.6909 N.ar    1  UNL1       -0.2244
      4 C         140.6648  140.3560  166.0030 C.ar    1  UNL1        0.0941
      5 C         139.8518  140.2476  167.2589 C.ar    1  UNL1        0.0248
      6 C         138.6683  139.3722  166.9708 C.ar    1  UNL1        0.0371
      7 S         138.7498  138.9396  165.5369 S.2     1  UNL1       -0.0802
      8 C         139.9837  139.5476  164.9387 C.ar    1  UNL1        0.1036
      9 C         140.5751  139.4695  163.5624 C.ar    1  UNL1        0.2733
     10 O         139.8940  138.6611  162.4982 O.2     1  UNL1       -0.2660
     11 C         143.6217  139.9658  159.1215 C.ar    1  UNL1        0.1388
     12 C         142.6057  141.0216  159.4425 C.ar    1  UNL1        0.0384
     13 C         142.0143  141.0996  160.8188 C.ar    1  UNL1        0.0208
     14 C         142.4390  140.1219  161.8741 C.ar    1  UNL1        0.0685
     15 C         143.4550  139.0661  161.5531 C.ar    1  UNL1        0.0208
     16 C         144.0463  138.9880  160.1769 C.ar    1  UNL1        0.0384
     17 C         144.9522  141.0637  157.1787 C.3     1  UNL1        0.2525
     18 O         144.2131  139.8878  157.7452 O.3     1  UNL1       -0.4714
     19 C         140.1670  140.9000  168.5722 C.ar    1  UNL1        0.0020
     20 C         140.3936  140.0580  169.7927 C.ar    1  UNL1        0.0001
     21 C         140.7089  140.7104  171.1062 C.ar    1  UNL1        0.0000
     22 C         140.7975  142.2049  171.1990 C.ar    1  UNL1        0.0000
     23 C         140.5709  143.0469  169.9785 C.ar    1  UNL1        0.0000
     24 C         140.2557  142.3945  168.6651 C.ar    1  UNL1        0.0001
@<TRIPOS>BOND
     1    17    18    1
     2    18    11    1
     3    11    12   ar
     4    12    13   ar
     5    13    14   ar
     6    14     1    1
     7     1     2   ar
     8     2     3   ar
     9     3     4   ar
    10     4     5   ar
    11     5    19    1
    12    19    20   ar
    13    20    21   ar
    14    21    22   ar
    15    22    23   ar
    16    23    24   ar
    17     5     6   ar
    18     6     7   ar
    19     7     8   ar
    20     8     9   ar
    21     9    10    2
    22    14    15   ar
    23    15    16   ar
    24    16    11   ar
    25     9     1   ar
    26     8     4   ar
    27    24    19   ar
@<TRIPOS>MOLECULE
*****
 24 27 0 0 0
SMALL
GASTEIGER

@<TRIPOS>ATOM
      1 N         139.9735  139.2814  163.3577 N.ar    1  UNL1       -0.2563
      2 C         140.3981  137.9650  162.7774 C.ar    1  UNL1        0.1851
      3 N         140.6541  137.8423  161.3045 N.ar    1  UNL1       -0.2244
      4 C         140.4855  139.0360  160.4119 C.ar    1  UNL1        0.0941
      5 C         140.6647  139.2173  158.9337 C.ar    1  UNL1        0.0248
      6 C         140.3509  140.6457  158.6005 C.ar    1  UNL1        0.0371
      7 S         139.9777  141.3472  159.8727 S.2     1  UNL1       -0.0802
      8 C         140.0609  140.3524  160.9923 C.ar    1  UNL1        0.1036
      9 C         139.8049  140.4751  162.4651 C.ar    1  UNL1        0.2733
     10 O         139.3802  141.7915  163.0454 O.2     1  UNL1       -0.2660
     11 C         139.2054  139.6495  167.7764 C.ar    1  UNL1        0.1388
     12 C         138.1629  139.0474  166.8815 C.ar    1  UNL1        0.0384
     13 C         138.4190  138.9247  165.4086 C.ar    1  UNL1        0.0208
     14 C         139.7175  139.4041  164.8306 C.ar    1  UNL1        0.0685
     15 C         140.7599  140.0062  165.7254 C.ar    1  UNL1        0.0208
     16 C         140.5039  140.1290  167.1983 C.ar    1  UNL1        0.0384
     17 C         140.0598  140.1785  170.1722 C.3     1  UNL1        0.2525
     18 O         138.9493  139.7723  169.2492 O.3     1  UNL1       -0.4714
     19 C         141.0842  138.1563  157.9598 C.ar    1  UNL1        0.0020
     20 C         140.1311  137.6941  156.8977 C.ar    1  UNL1        0.0001
     21 C         140.5505  136.6332  155.9238 C.ar    1  UNL1        0.0000
     22 C         141.9230  136.0345  156.0119 C.ar    1  UNL1        0.0000
     23 C         142.8760  136.4967  157.0740 C.ar    1  UNL1        0.0000
     24 C         142.4567  137.5576  158.0480 C.ar    1  UNL1        0.0001
@<TRIPOS>BOND
     1    17    18    1
     2    18    11    1
     3    11    12   ar
     4    12    13   ar
     5    13    14   ar
     6    14     1    1
     7     1     2   ar
     8     2     3   ar
     9     3     4   ar
    10     4     5   ar
    11     5    19    1
    12    19    20   ar
    13    20    21   ar
    14    21    22   ar
    15    22    23   ar
    16    23    24   ar
    17     5     6   ar
    18     6     7   ar
    19     7     8   ar
    20     8     9   ar
    21     9    10    2
    22    14    15   ar
    23    15    16   ar
    24    16    11   ar
    25     9     1   ar
    26     8     4   ar
    27    24    19   ar
@<TRIPOS>MOLECULE
*****
 24 27 0 0 0
SMALL
GASTEIGER

@<TRIPOS>ATOM
      1 N         140.4026  143.7786  161.4062 N.ar    1  UNL1       -0.2563
      2 C         141.2218  142.6313  161.9185 C.ar    1  UNL1        0.1851
      3 N         141.2047  142.2909  163.3793 N.ar    1  UNL1       -0.2244
      4 C         140.3685  143.0978  164.3277 C.ar    1  UNL1        0.0941
      5 C         140.1531  142.9995  165.8089 C.ar    1  UNL1        0.0248
      6 C         139.2008  144.0860  166.2121 C.ar    1  UNL1        0.0371
      7 S         138.8276  144.8559  164.9800 S.2     1  UNL1       -0.0802
      8 C         139.5493  144.2452  163.8154 C.ar    1  UNL1        0.1036
      9 C         139.5663  144.5856  162.3547 C.ar    1  UNL1        0.2733
     10 O         138.7471  145.7330  161.8424 O.2     1  UNL1       -0.2660
     11 C         140.4537  144.7999  157.0239 C.ar    1  UNL1        0.1388
     12 C         141.3500  145.5352  157.9759 C.ar    1  UNL1        0.0384
     13 C         141.3329  145.1947  159.4367 C.ar    1  UNL1        0.0208
     14 C         140.4196  144.1191  159.9455 C.ar    1  UNL1        0.0685
     15 C         139.5234  143.3838  158.9935 C.ar    1  UNL1        0.0208
     16 C         139.5404  143.7242  157.5328 C.ar    1  UNL1        0.0384
     17 C         141.7761  145.3801  154.8641 C.3     1  UNL1        0.2525
     18 O         140.4708  145.1404  155.5632 O.3     1  UNL1       -0.4714
     19 C         140.7799  141.9915  166.7260 C.ar    1  UNL1        0.0020
     20 C         142.2486  142.0593  167.0234 C.ar    1  UNL1        0.0001
     21 C         142.8755  141.0513  167.9405 C.ar    1  UNL1        0.0000
     22 C         142.0338  139.9755  168.5601 C.ar    1  UNL1        0.0000
     23 C         140.5651  139.9077  168.2627 C.ar    1  UNL1        0.0000
     24 C         139.9382  140.9156  167.3457 C.ar    1  UNL1        0.0001
@<TRIPOS>BOND
     1    17    18    1
     2    18    11    1
     3    11    12   ar
     4    12    13   ar
     5    13    14   ar
     6    14     1    1
     7     1     2   ar
     8     2     3   ar
     9     3     4   ar
    10     4     5   ar
    11     5    19    1
    12    19    20   ar
    13    20    21   ar
    14    21    22   ar
    15    22    23   ar
    16    23    24   ar
    17     5     6   ar
    18     6     7   ar
    19     7     8   ar
    20     8     9   ar
    21     9    10    2
    22    14    15   ar
    23    15    16   ar
    24    16    11   ar
    25     9     1   ar
    26     8     4   ar
    27    24    19   ar
