@<TRIPOS>MOLECULE
*****
 28 31 0 0 0
SMALL
GASTEIGER

@<TRIPOS>ATOM
      1 C         139.5797  141.5760  164.5599 C.ar    1  UNL1        0.0681
      2 C         140.1722  140.9626  163.3260 C.ar    1  UNL1        0.0208
      3 C         139.7316  141.4298  161.9704 C.ar    1  UNL1        0.0384
      4 C         138.6985  142.5105  161.8489 C.ar    1  UNL1        0.1386
      5 C         138.1060  143.1239  163.0828 C.ar    1  UNL1        0.0384
      6 C         138.5465  142.6567  164.4383 C.ar    1  UNL1        0.0208
      7 C         138.0509  139.4150  165.9717 C.3     1  UNL1        0.0723
      8 C         139.2559  140.0282  166.6214 C.ar    1  UNL1        0.1268
      9 N         139.6965  139.5610  167.9769 N.ar    1  UNL1       -0.2318
     10 C         140.9015  140.1742  168.6267 C.ar    1  UNL1        0.0872
     11 C         141.3421  139.7069  169.9822 C.ar    1  UNL1        0.0193
     12 C         142.5470  140.3201  170.6318 C.ar    1  UNL1        0.0015
     13 C         143.3114  141.4006  169.9259 C.ar    1  UNL1        0.0003
     14 C         142.8708  141.8679  168.5704 C.ar    1  UNL1        0.0063
     15 C         141.6659  141.2547  167.9208 C.ar    1  UNL1        0.0742
     16 C         141.2252  141.7220  166.5652 C.ar    1  UNL1        0.2669
     17 O         141.9896  142.8025  165.8593 O.2     1  UNL1       -0.2665
     18 N         140.0203  141.1087  165.9155 N.ar    1  UNL1       -0.2626
     19 O         138.2578  142.9777  160.4933 O.3     1  UNL1       -0.4754
     20 C         139.1692  142.8192  159.3125 C.3     1  UNL1        0.2068
     21 C         139.6323  144.0280  158.5547 C.3     1  UNL1        0.0646
     22 C         140.7910  144.8335  159.0632 C.3     1  UNL1        0.0759
     23 N         141.2924  144.6262  160.4616 N.3     1  UNL1       -0.2738
     24 C         142.4022  143.7045  160.8728 C.3     1  UNL1        0.0721
     25 C         142.5678  143.8128  162.3597 C.3     1  UNL1        0.0187
     26 C         141.5603  144.8014  162.8675 C.3     1  UNL1        0.0174
     27 C         140.7720  145.3040  161.6944 C.3     1  UNL1        0.0576
     28 C         139.6589  146.3082  161.7452 C.3     1  UNL1        0.0173
@<TRIPOS>BOND
     1     7     8    1
     2     8     9   ar
     3     9    10   ar
     4    10    11   ar
     5    11    12   ar
     6    12    13   ar
     7    13    14   ar
     8    14    15   ar
     9    15    16   ar
    10    16    17    2
    11    16    18   ar
    12    18     1    1
    13     1     2   ar
    14     2     3   ar
    15     3     4   ar
    16     4    19    1
    17    19    20    1
    18    20    21    1
    19    21    22    1
    20    22    23    1
    21    23    24    1
    22    24    25    1
    23    25    26    1
    24    26    27    1
    25    27    28    1
    26     4     5   ar
    27     5     6   ar
    28    18     8   ar
    29     6     1   ar
    30    15    10   ar
    31    27    23    1
@<TRIPOS>MOLECULE
*****
 28 31 0 0 0
SMALL
GASTEIGER

@<TRIPOS>ATOM
      1 C         139.2707  139.3690  164.6221 C.ar    1  UNL1        0.0681
      2 C         138.2883  140.0170  163.6921 C.ar    1  UNL1        0.0208
      3 C         138.2000  139.5687  162.2634 C.ar    1  UNL1        0.0384
      4 C         139.0941  138.4725  161.7647 C.ar    1  UNL1        0.1386
      5 C         140.0765  137.8244  162.6947 C.ar    1  UNL1        0.0384
      6 C         140.1648  138.2727  164.1234 C.ar    1  UNL1        0.0208
      7 C         137.7209  137.9242  166.7460 C.3     1  UNL1        0.0723
      8 C         138.5841  139.0949  167.1128 C.ar    1  UNL1        0.1268
      9 N         138.6724  139.5432  168.5415 N.ar    1  UNL1       -0.2318
     10 C         139.5356  140.7138  168.9083 C.ar    1  UNL1        0.0872
     11 C         139.6239  141.1621  170.3370 C.ar    1  UNL1        0.0193
     12 C         140.4870  142.3327  170.7038 C.ar    1  UNL1        0.0015
     13 C         141.2619  143.0551  169.6419 C.ar    1  UNL1        0.0003
     14 C         141.1737  142.6068  168.2132 C.ar    1  UNL1        0.0063
     15 C         140.3105  141.4362  167.8464 C.ar    1  UNL1        0.0742
     16 C         140.2222  140.9879  166.4176 C.ar    1  UNL1        0.2669
     17 O         140.9971  141.7103  165.3557 O.2     1  UNL1       -0.2665
     18 N         139.3590  139.8173  166.0509 N.ar    1  UNL1       -0.2626
     19 O         139.0058  138.0242  160.3359 O.3     1  UNL1       -0.4754
     20 C         139.7636  138.7599  159.2708 C.3     1  UNL1        0.2068
     21 C         141.2214  138.4787  159.0576 C.3     1  UNL1        0.0646
     22 C         142.2470  139.5039  159.4414 C.3     1  UNL1        0.0759
     23 N         142.7939  139.5314  160.8378 N.3     1  UNL1       -0.2738
     24 C         143.8482  138.6182  161.3900 C.3     1  UNL1        0.0721
     25 C         144.0885  138.9992  162.8207 C.3     1  UNL1        0.0187
     26 C         143.1828  140.1479  163.1529 C.3     1  UNL1        0.0174
     27 C         142.3827  140.4768  161.9274 C.3     1  UNL1        0.0576
     28 C         141.3523  141.5607  161.8117 C.3     1  UNL1        0.0173
@<TRIPOS>BOND
     1     7     8    1
     2     8     9   ar
     3     9    10   ar
     4    10    11   ar
     5    11    12   ar
     6    12    13   ar
     7    13    14   ar
     8    14    15   ar
     9    15    16   ar
    10    16    17    2
    11    16    18   ar
    12    18     1    1
    13     1     2   ar
    14     2     3   ar
    15     3     4   ar
    16     4    19    1
    17    19    20    1
    18    20    21    1
    19    21    22    1
    20    22    23    1
    21    23    24    1
    22    24    25    1
    23    25    26    1
    24    26    27    1
    25    27    28    1
    26     4     5   ar
    27     5     6   ar
    28    18     8   ar
    29     6     1   ar
    30    15    10   ar
    31    27    23    1
@<TRIPOS>MOLECULE
*****
 28 31 0 0 0
SMALL
GASTEIGER

@<TRIPOS>ATOM
      1 C         139.2241  141.3227  164.4975 C.ar    1  UNL1        0.0681
      2 C         137.8485  141.6861  164.0227 C.ar    1  UNL1        0.0208
      3 C         137.6081  141.9746  162.5704 C.ar    1  UNL1        0.0384
      4 C         138.7435  141.8996  161.5931 C.ar    1  UNL1        0.1386
      5 C         140.1191  141.5362  162.0679 C.ar    1  UNL1        0.0384
      6 C         140.3595  141.2477  163.5201 C.ar    1  UNL1        0.0208
      7 C         138.2863  138.7334  165.6876 C.3     1  UNL1        0.0723
      8 C         138.9955  139.7396  166.5449 C.ar    1  UNL1        0.1268
      9 N         139.2358  139.4511  167.9971 N.ar    1  UNL1       -0.2318
     10 C         139.9449  140.4572  168.8543 C.ar    1  UNL1        0.0872
     11 C         140.1852  140.1687  170.3066 C.ar    1  UNL1        0.0193
     12 C         140.8943  141.1748  171.1637 C.ar    1  UNL1        0.0015
     13 C         141.3632  142.4695  170.5687 C.ar    1  UNL1        0.0003
     14 C         141.1230  142.7580  169.1165 C.ar    1  UNL1        0.0063
     15 C         140.4138  141.7518  168.2593 C.ar    1  UNL1        0.0742
     16 C         140.1735  142.0403  166.8070 C.ar    1  UNL1        0.2669
     17 O         140.6424  143.3350  166.2119 O.2     1  UNL1       -0.2665
     18 N         139.4644  141.0342  165.9498 N.ar    1  UNL1       -0.2626
     19 O         138.5032  142.1881  160.1408 O.3     1  UNL1       -0.4754
     20 C         138.3388  141.0575  159.1688 C.3     1  UNL1        0.2068
     21 C         139.5272  140.2355  158.7665 C.3     1  UNL1        0.0646
     22 C         139.5912  138.7816  159.1302 C.3     1  UNL1        0.0759
     23 N         140.1586  138.3641  160.4544 N.3     1  UNL1       -0.2738
     24 C         141.6121  138.1657  160.7679 C.3     1  UNL1        0.0721
     25 C         141.7240  137.7506  162.2049 C.3     1  UNL1        0.0187
     26 C         140.3397  137.6924  162.7798 C.3     1  UNL1        0.0174
     27 C         139.3722  138.0715  161.6979 C.3     1  UNL1        0.0576
     28 C         137.8804  138.1452  161.8353 C.3     1  UNL1        0.0173
@<TRIPOS>BOND
     1     7     8    1
     2     8     9   ar
     3     9    10   ar
     4    10    11   ar
     5    11    12   ar
     6    12    13   ar
     7    13    14   ar
     8    14    15   ar
     9    15    16   ar
    10    16    17    2
    11    16    18   ar
    12    18     1    1
    13     1     2   ar
    14     2     3   ar
    15     3     4   ar
    16     4    19    1
    17    19    20    1
    18    20    21    1
    19    21    22    1
    20    22    23    1
    21    23    24    1
    22    24    25    1
    23    25    26    1
    24    26    27    1
    25    27    28    1
    26     4     5   ar
    27     5     6   ar
    28    18     8   ar
    29     6     1   ar
    30    15    10   ar
    31    27    23    1
@<TRIPOS>MOLECULE
*****
 28 31 0 0 0
SMALL
GASTEIGER

@<TRIPOS>ATOM
      1 C         143.0391  140.0678  164.8191 C.ar    1  UNL1        0.0681
      2 C         144.3429  140.6093  164.3122 C.ar    1  UNL1        0.0208
      3 C         144.7062  140.4576  162.8649 C.ar    1  UNL1        0.0384
      4 C         143.7656  139.7644  161.9243 C.ar    1  UNL1        0.1386
      5 C         142.4618  139.2228  162.4311 C.ar    1  UNL1        0.0384
      6 C         142.0986  139.3745  163.8785 C.ar    1  UNL1        0.0208
      7 C         143.7942  137.9328  166.7868 C.3     1  UNL1        0.0723
      8 C         143.0535  139.1520  167.2504 C.ar    1  UNL1        0.1268
      9 N         142.6903  139.3037  168.6978 N.ar    1  UNL1       -0.2318
     10 C         141.9495  140.5229  169.1614 C.ar    1  UNL1        0.0872
     11 C         141.5863  140.6746  170.6089 C.ar    1  UNL1        0.0193
     12 C         140.8456  141.8937  171.0724 C.ar    1  UNL1        0.0015
     13 C         140.4681  142.9612  170.0886 C.ar    1  UNL1        0.0003
     14 C         140.8312  142.8095  168.6412 C.ar    1  UNL1        0.0063
     15 C         141.5720  141.5904  168.1776 C.ar    1  UNL1        0.0742
     16 C         141.9352  141.4386  166.7301 C.ar    1  UNL1        0.2669
     17 O         141.5576  142.5061  165.7463 O.2     1  UNL1       -0.2665
     18 N         142.6759  140.2195  166.2665 N.ar    1  UNL1       -0.2626
     19 O         144.1288  139.6126  160.4768 O.3     1  UNL1       -0.4754
     20 C         143.7216  140.6638  159.4872 C.3     1  UNL1        0.2068
     21 C         142.8290  141.7909  159.9149 C.3     1  UNL1        0.0646
     22 C         143.3995  143.1629  160.1200 C.3     1  UNL1        0.0759
     23 N         143.2410  143.8508  161.4435 N.3     1  UNL1       -0.2738
     24 C         144.3065  144.0107  162.4873 C.3     1  UNL1        0.0721
     25 C         143.7133  144.7583  163.6445 C.3     1  UNL1        0.0187
     26 C         142.2812  145.0606  163.3160 C.3     1  UNL1        0.0174
     27 C         141.9894  144.4997  161.9557 C.3     1  UNL1        0.0576
     28 C         140.6764  144.5746  161.2343 C.3     1  UNL1        0.0173
@<TRIPOS>BOND
     1     7     8    1
     2     8     9   ar
     3     9    10   ar
     4    10    11   ar
     5    11    12   ar
     6    12    13   ar
     7    13    14   ar
     8    14    15   ar
     9    15    16   ar
    10    16    17    2
    11    16    18   ar
    12    18     1    1
    13     1     2   ar
    14     2     3   ar
    15     3     4   ar
    16     4    19    1
    17    19    20    1
    18    20    21    1
    19    21    22    1
    20    22    23    1
    21    23    24    1
    22    24    25    1
    23    25    26    1
    24    26    27    1
    25    27    28    1
    26     4     5   ar
    27     5     6   ar
    28    18     8   ar
    29     6     1   ar
    30    15    10   ar
    31    27    23    1
@<TRIPOS>MOLECULE
*****
 28 31 0 0 0
SMALL
GASTEIGER

@<TRIPOS>ATOM
      1 C         140.3899  139.1732  164.9875 C.ar    1  UNL1        0.0681
      2 C         140.7490  137.7505  164.6756 C.ar    1  UNL1        0.0208
      3 C         140.7203  137.2634  163.2573 C.ar    1  UNL1        0.0384
      4 C         140.3324  138.1988  162.1507 C.ar    1  UNL1        0.1386
      5 C         139.9733  139.6214  162.4626 C.ar    1  UNL1        0.0384
      6 C         140.0021  140.1086  163.8809 C.ar    1  UNL1        0.0208
      7 C         137.9944  138.7928  166.7529 C.3     1  UNL1        0.0723
      8 C         139.2209  139.4701  167.2886 C.ar    1  UNL1        0.1268
      9 N         139.2496  139.9573  168.7070 N.ar    1  UNL1       -0.2318
     10 C         140.4762  140.6346  169.2428 C.ar    1  UNL1        0.0872
     11 C         140.5049  141.1217  170.6611 C.ar    1  UNL1        0.0193
     12 C         141.7314  141.7990  171.1968 C.ar    1  UNL1        0.0015
     13 C         142.9291  141.9891  170.3141 C.ar    1  UNL1        0.0003
     14 C         142.9004  141.5020  168.8957 C.ar    1  UNL1        0.0063
     15 C         141.6739  140.8247  168.3600 C.ar    1  UNL1        0.0742
     16 C         141.6452  140.3376  166.9416 C.ar    1  UNL1        0.2669
     17 O         142.8429  140.5277  166.0589 O.2     1  UNL1       -0.2665
     18 N         140.4187  139.6603  166.4059 N.ar    1  UNL1       -0.2626
     19 O         140.3037  137.7117  160.7323 O.3     1  UNL1       -0.4754
     20 C         140.6125  138.6560  159.6086 C.3     1  UNL1        0.2068
     21 C         141.8627  138.4759  158.7996 C.3     1  UNL1        0.0646
     22 C         143.1236  139.1828  159.2001 C.3     1  UNL1        0.0759
     23 N         143.4504  139.3686  160.6522 N.3     1  UNL1       -0.2738
     24 C         143.8856  138.2928  161.6028 C.3     1  UNL1        0.0721
     25 C         144.1035  138.9221  162.9468 C.3     1  UNL1        0.0187
     26 C         143.8031  140.3869  162.8270 C.3     1  UNL1        0.0174
     27 C         143.3994  140.6628  161.4089 C.3     1  UNL1        0.0576
     28 C         143.0127  141.9984  160.8462 C.3     1  UNL1        0.0173
@<TRIPOS>BOND
     1     7     8    1
     2     8     9   ar
     3     9    10   ar
     4    10    11   ar
     5    11    12   ar
     6    12    13   ar
     7    13    14   ar
     8    14    15   ar
     9    15    16   ar
    10    16    17    2
    11    16    18   ar
    12    18     1    1
    13     1     2   ar
    14     2     3   ar
    15     3     4   ar
    16     4    19    1
    17    19    20    1
    18    20    21    1
    19    21    22    1
    20    22    23    1
    21    23    24    1
    22    24    25    1
    23    25    26    1
    24    26    27    1
    25    27    28    1
    26     4     5   ar
    27     5     6   ar
    28    18     8   ar
    29     6     1   ar
    30    15    10   ar
    31    27    23    1
@<TRIPOS>MOLECULE
*****
 28 31 0 0 0
SMALL
GASTEIGER

@<TRIPOS>ATOM
      1 C         139.5225  139.3069  164.9164 C.ar    1  UNL1        0.0681
      2 C         138.4365  139.9153  164.0796 C.ar    1  UNL1        0.0208
      3 C         138.2176  139.4402  162.6738 C.ar    1  UNL1        0.0384
      4 C         139.0848  138.3566  162.1048 C.ar    1  UNL1        0.1386
      5 C         140.1708  137.7482  162.9416 C.ar    1  UNL1        0.0384
      6 C         140.3897  138.2233  164.3474 C.ar    1  UNL1        0.0208
      7 C         137.6411  138.4624  167.0951 C.3     1  UNL1        0.0723
      8 C         138.8007  139.3598  167.4116 C.ar    1  UNL1        0.1268
      9 N         139.0195  139.8349  168.8174 N.ar    1  UNL1       -0.2318
     10 C         140.1791  140.7323  169.1339 C.ar    1  UNL1        0.0872
     11 C         140.3979  141.2074  170.5397 C.ar    1  UNL1        0.0193
     12 C         141.5575  142.1047  170.8561 C.ar    1  UNL1        0.0015
     13 C         142.4982  142.5270  169.7668 C.ar    1  UNL1        0.0003
     14 C         142.2794  142.0518  168.3610 C.ar    1  UNL1        0.0063
     15 C         141.1199  141.1545  168.0445 C.ar    1  UNL1        0.0742
     16 C         140.9010  140.6793  166.6387 C.ar    1  UNL1        0.2669
     17 O         141.8417  141.1016  165.5493 O.2     1  UNL1       -0.2665
     18 N         139.7414  139.7820  166.3222 N.ar    1  UNL1       -0.2626
     19 O         138.8659  137.8815  160.6989 O.3     1  UNL1       -0.4754
     20 C         139.5927  138.5389  159.5633 C.3     1  UNL1        0.2068
     21 C         139.2095  139.9222  159.1282 C.3     1  UNL1        0.0646
     22 C         140.1304  141.0752  159.3973 C.3     1  UNL1        0.0759
     23 N         139.9691  141.8878  160.6478 N.3     1  UNL1       -0.2738
     24 C         138.9005  142.9090  160.9041 C.3     1  UNL1        0.0721
     25 C         139.1190  143.4743  162.2762 C.3     1  UNL1        0.0187
     26 C         140.3227  142.8026  162.8680 C.3     1  UNL1        0.0174
     27 C         140.8480  141.8221  161.8615 C.3     1  UNL1        0.0576
     28 C         142.0426  140.9322  162.0380 C.3     1  UNL1        0.0173
@<TRIPOS>BOND
     1     7     8    1
     2     8     9   ar
     3     9    10   ar
     4    10    11   ar
     5    11    12   ar
     6    12    13   ar
     7    13    14   ar
     8    14    15   ar
     9    15    16   ar
    10    16    17    2
    11    16    18   ar
    12    18     1    1
    13     1     2   ar
    14     2     3   ar
    15     3     4   ar
    16     4    19    1
    17    19    20    1
    18    20    21    1
    19    21    22    1
    20    22    23    1
    21    23    24    1
    22    24    25    1
    23    25    26    1
    24    26    27    1
    25    27    28    1
    26     4     5   ar
    27     5     6   ar
    28    18     8   ar
    29     6     1   ar
    30    15    10   ar
    31    27    23    1
@<TRIPOS>MOLECULE
*****
 28 31 0 0 0
SMALL
GASTEIGER

@<TRIPOS>ATOM
      1 C         141.8537  138.9728  164.9169 C.ar    1  UNL1        0.0681
      2 C         142.4971  139.8423  163.8777 C.ar    1  UNL1        0.0208
      3 C         142.4483  139.4448  162.4322 C.ar    1  UNL1        0.0384
      4 C         141.7561  138.1777  162.0259 C.ar    1  UNL1        0.1386
      5 C         141.1127  137.3081  163.0650 C.ar    1  UNL1        0.0384
      6 C         141.1615  137.7056  164.5105 C.ar    1  UNL1        0.0208
      7 C         144.0143  137.8943  166.6970 C.3     1  UNL1        0.0723
      8 C         142.9828  138.8311  167.2525 C.ar    1  UNL1        0.1268
      9 N         143.0317  139.2287  168.6980 N.ar    1  UNL1       -0.2318
     10 C         142.0003  140.1655  169.2535 C.ar    1  UNL1        0.0872
     11 C         142.0491  140.5631  170.6990 C.ar    1  UNL1        0.0193
     12 C         141.0177  141.4999  171.2544 C.ar    1  UNL1        0.0015
     13 C         139.9375  142.0391  170.3644 C.ar    1  UNL1        0.0003
     14 C         139.8886  141.6416  168.9189 C.ar    1  UNL1        0.0063
     15 C         140.9200  140.7048  168.3634 C.ar    1  UNL1        0.0742
     16 C         140.8712  140.3072  166.9179 C.ar    1  UNL1        0.2669
     17 O         139.7909  140.8464  166.0278 O.2     1  UNL1       -0.2665
     18 N         141.9026  139.3704  166.3624 N.ar    1  UNL1       -0.2626
     19 O         141.7073  137.7801  160.5803 O.3     1  UNL1       -0.4754
     20 C         141.7123  138.8332  159.5122 C.3     1  UNL1        0.2068
     21 C         140.5420  138.9650  158.5833 C.3     1  UNL1        0.0646
     22 C         139.2229  139.4543  159.1035 C.3     1  UNL1        0.0759
     23 N         139.1429  140.1017  160.4542 N.3     1  UNL1       -0.2738
     24 C         139.7132  141.4383  160.8265 C.3     1  UNL1        0.0721
     25 C         139.4013  141.6889  162.2721 C.3     1  UNL1        0.0187
     26 C         138.6382  140.5073  162.7934 C.3     1  UNL1        0.0174
     27 C         138.4785  139.5264  161.6698 C.3     1  UNL1        0.0576
     28 C         137.7776  138.2026  161.7481 C.3     1  UNL1        0.0173
@<TRIPOS>BOND
     1     7     8    1
     2     8     9   ar
     3     9    10   ar
     4    10    11   ar
     5    11    12   ar
     6    12    13   ar
     7    13    14   ar
     8    14    15   ar
     9    15    16   ar
    10    16    17    2
    11    16    18   ar
    12    18     1    1
    13     1     2   ar
    14     2     3   ar
    15     3     4   ar
    16     4    19    1
    17    19    20    1
    18    20    21    1
    19    21    22    1
    20    22    23    1
    21    23    24    1
    22    24    25    1
    23    25    26    1
    24    26    27    1
    25    27    28    1
    26     4     5   ar
    27     5     6   ar
    28    18     8   ar
    29     6     1   ar
    30    15    10   ar
    31    27    23    1
@<TRIPOS>MOLECULE
*****
 28 31 0 0 0
SMALL
GASTEIGER

@<TRIPOS>ATOM
      1 C         141.3402  139.9206  164.4387 C.ar    1  UNL1        0.0681
      2 C         141.0025  141.0415  163.5009 C.ar    1  UNL1        0.0208
      3 C         141.3972  140.9555  162.0564 C.ar    1  UNL1        0.0384
      4 C         142.1296  139.7485  161.5496 C.ar    1  UNL1        0.1386
      5 C         142.4672  138.6276  162.4875 C.ar    1  UNL1        0.0384
      6 C         142.0726  138.7136  163.9320 C.ar    1  UNL1        0.0208
      7 C         138.5719  139.1347  165.2867 C.3     1  UNL1        0.0723
      8 C         139.5613  139.6137  166.3073 C.ar    1  UNL1        0.1268
      9 N         139.1666  139.6998  167.7519 N.ar    1  UNL1       -0.2318
     10 C         140.1560  140.1788  168.7725 C.ar    1  UNL1        0.0872
     11 C         139.7613  140.2648  170.2171 C.ar    1  UNL1        0.0193
     12 C         140.7507  140.7438  171.2376 C.ar    1  UNL1        0.0015
     13 C         142.1348  141.1367  170.8137 C.ar    1  UNL1        0.0003
     14 C         142.5296  141.0507  169.3691 C.ar    1  UNL1        0.0063
     15 C         141.5402  140.5717  168.3486 C.ar    1  UNL1        0.0742
     16 C         141.9349  140.4856  166.9039 C.ar    1  UNL1        0.2669
     17 O         143.3190  140.8785  166.4800 O.2     1  UNL1       -0.2665
     18 N         140.9455  140.0066  165.8834 N.ar    1  UNL1       -0.2626
     19 O         142.5243  139.6624  160.1050 O.3     1  UNL1       -0.4754
     20 C         143.7158  140.4251  159.6064 C.3     1  UNL1        0.2068
     21 C         143.8059  141.9056  159.8298 C.3     1  UNL1        0.0646
     22 C         144.8142  142.4587  160.7928 C.3     1  UNL1        0.0759
     23 N         144.3613  143.0572  162.0915 N.3     1  UNL1       -0.2738
     24 C         143.4165  144.2118  162.2483 C.3     1  UNL1        0.0721
     25 C         143.2449  144.4744  163.7152 C.3     1  UNL1        0.0187
     26 C         144.0837  143.4822  164.4650 C.3     1  UNL1        0.0174
     27 C         144.7737  142.6064  163.4614 C.3     1  UNL1        0.0576
     28 C         145.7113  141.4778  163.7732 C.3     1  UNL1        0.0173
@<TRIPOS>BOND
     1     7     8    1
     2     8     9   ar
     3     9    10   ar
     4    10    11   ar
     5    11    12   ar
     6    12    13   ar
     7    13    14   ar
     8    14    15   ar
     9    15    16   ar
    10    16    17    2
    11    16    18   ar
    12    18     1    1
    13     1     2   ar
    14     2     3   ar
    15     3     4   ar
    16     4    19    1
    17    19    20    1
    18    20    21    1
    19    21    22    1
    20    22    23    1
    21    23    24    1
    22    24    25    1
    23    25    26    1
    24    26    27    1
    25    27    28    1
    26     4     5   ar
    27     5     6   ar
    28    18     8   ar
    29     6     1   ar
    30    15    10   ar
    31    27    23    1
@<TRIPOS>MOLECULE
*****
 28 31 0 0 0
SMALL
GASTEIGER

@<TRIPOS>ATOM
      1 C         141.7701  141.1777  163.6364 C.ar    1  UNL1        0.0681
      2 C         140.3756  141.3453  163.1099 C.ar    1  UNL1        0.0208
      3 C         140.1568  141.8036  161.6985 C.ar    1  UNL1        0.0384
      4 C         141.3325  142.0943  160.8136 C.ar    1  UNL1        0.1386
      5 C         142.7270  141.9268  161.3401 C.ar    1  UNL1        0.0384
      6 C         142.9458  141.4685  162.7515 C.ar    1  UNL1        0.0208
      7 C         141.3446  138.2979  164.3613 C.3     1  UNL1        0.0723
      8 C         141.7762  139.2795  165.4103 C.ar    1  UNL1        0.1268
      9 N         141.9949  138.8211  166.8217 N.ar    1  UNL1       -0.2318
     10 C         142.4265  139.8027  167.8707 C.ar    1  UNL1        0.0872
     11 C         142.6452  139.3444  169.2820 C.ar    1  UNL1        0.0193
     12 C         143.0767  140.3259  170.3310 C.ar    1  UNL1        0.0015
     13 C         143.2895  141.7659  169.9685 C.ar    1  UNL1        0.0003
     14 C         143.0707  142.2242  168.5571 C.ar    1  UNL1        0.0063
     15 C         142.6392  141.2426  167.5082 C.ar    1  UNL1        0.0742
     16 C         142.4204  141.7010  166.0968 C.ar    1  UNL1        0.2669
     17 O         142.6332  143.1409  165.7343 O.2     1  UNL1       -0.2665
     18 N         141.9889  140.7194  165.0478 N.ar    1  UNL1       -0.2626
     19 O         141.1137  142.5527  159.4022 O.3     1  UNL1       -0.4754
     20 C         140.9400  144.0129  159.1062 C.3     1  UNL1        0.2068
     21 C         141.2026  145.0313  160.1757 C.3     1  UNL1        0.0646
     22 C         140.0552  145.6820  160.8897 C.3     1  UNL1        0.0759
     23 N         139.6586  145.2106  162.2574 N.3     1  UNL1       -0.2738
     24 C         138.2831  144.7857  162.6791 C.3     1  UNL1        0.0721
     25 C         138.3422  144.3938  164.1258 C.3     1  UNL1        0.0187
     26 C         139.7541  144.5766  164.5983 C.3     1  UNL1        0.0174
     27 C         140.5677  145.0814  163.4435 C.3     1  UNL1        0.0576
     28 C         142.0330  145.4008  163.4702 C.3     1  UNL1        0.0173
@<TRIPOS>BOND
     1     7     8    1
     2     8     9   ar
     3     9    10   ar
     4    10    11   ar
     5    11    12   ar
     6    12    13   ar
     7    13    14   ar
     8    14    15   ar
     9    15    16   ar
    10    16    17    2
    11    16    18   ar
    12    18     1    1
    13     1     2   ar
    14     2     3   ar
    15     3     4   ar
    16     4    19    1
    17    19    20    1
    18    20    21    1
    19    21    22    1
    20    22    23    1
    21    23    24    1
    22    24    25    1
    23    25    26    1
    24    26    27    1
    25    27    28    1
    26     4     5   ar
    27     5     6   ar
    28    18     8   ar
    29     6     1   ar
    30    15    10   ar
    31    27    23    1
