@<TRIPOS>MOLECULE
*****
 39 43 0 0 0
SMALL
GASTEIGER

@<TRIPOS>ATOM
      1 O         142.9246  144.7557  158.2865 O.2     1  UNL1       -0.2749
      2 C         141.5100  144.3629  158.5942 C.2     1  UNL1        0.2256
      3 N         141.1796  143.7171  159.9071 N.am    1  UNL1       -0.2766
      4 C         139.7649  143.3244  160.2148 C.3     1  UNL1        0.1126
      5 C         139.4345  142.6786  161.5277 C.3     1  UNL1        0.1173
      6 N         140.5187  142.4254  162.5329 N.3     1  UNL1       -0.1520
      7 C         141.9333  142.8181  162.2253 C.3     1  UNL1        0.1173
      8 C         142.2638  143.4640  160.9123 C.3     1  UNL1        0.1126
      9 C         140.4258  144.6161  157.5890 C.3     1  UNL1        0.0811
     10 C         139.2638  144.1219  156.7794 C.3     1  UNL1        0.0142
     11 C         139.7100  145.5488  156.6576 C.3     1  UNL1        0.0314
     12 C         139.5542  146.9112  156.0495 C.ar    1  UNL1       -0.0220
     13 C         140.1272  147.1969  154.6930 C.ar    1  UNL1       -0.0043
     14 C         139.9714  148.5592  154.0849 C.ar    1  UNL1        0.0035
     15 C         139.2428  149.6358  154.8333 C.ar    1  UNL1        0.0714
     16 C         138.6699  149.3500  156.1898 C.ar    1  UNL1        0.0035
     17 C         138.8256  147.9877  156.7979 C.ar    1  UNL1       -0.0043
     18 C         139.0871  150.9982  154.2252 C.3     1  UNL1        0.4186
     19 F         138.9314  152.3605  153.6171 F       1  UNL1       -0.1659
     20 F         138.1501  151.3847  155.3309 F       1  UNL1       -0.1659
     21 F         140.0240  150.6117  153.1195 F       1  UNL1       -0.1659
     22 S         140.1883  141.7796  163.8458 S.O2    1  UNL1        0.0634
     23 O         140.6222  140.4508  163.3014 O.2     1  UNL1       -0.1528
     24 O         139.7545  143.1082  164.3902 O.2     1  UNL1       -0.1528
     25 C         139.8579  141.1338  165.1588 C.ar    1  UNL1        0.1221
     26 C         140.2587  141.7973  166.4429 C.ar    1  UNL1        0.0197
     27 C         139.9282  141.1515  167.7558 C.ar    1  UNL1        0.0008
     28 C         139.1971  139.8421  167.7845 C.ar    1  UNL1        0.0037
     29 C         138.7963  139.1785  166.5004 C.ar    1  UNL1        0.0727
     30 C         139.1268  139.8243  165.1875 C.ar    1  UNL1        0.0238
     31 C         140.3290  141.8151  169.0400 C.2     1  UNL1        0.0249
     32 C         140.6425  141.1195  170.3314 C.2     1  UNL1        0.1194
     33 N         140.9938  142.1653  171.3478 N.2     1  UNL1       -0.1510
     34 N         140.8974  143.5072  170.6844 N.2     1  UNL1       -0.1695
     35 C         140.4866  143.2907  169.2581 C.3     1  UNL1        0.1771
     36 C         138.0652  137.8691  166.5291 C.3     1  UNL1        0.4186
     37 F         137.3340  136.5597  166.5579 F       1  UNL1       -0.1659
     38 F         138.9377  137.3575  165.4215 F       1  UNL1       -0.1659
     39 F         137.1926  138.3807  167.6368 F       1  UNL1       -0.1659
@<TRIPOS>BOND
     1     1     2    2
     2     9     2    1
     3     9    10    1
     4    10    11    1
     5    11    12    1
     6    12    13   ar
     7    13    14   ar
     8    14    15   ar
     9    15    18    1
    10    18    19    1
    11    18    20    1
    12    18    21    1
    13    15    16   ar
    14    16    17   ar
    15     2     3   am
    16     3     4    1
    17     4     5    1
    18     5     6    1
    19     6    22    1
    20    22    23    2
    21    22    24    2
    22    22    25    1
    23    25    26   ar
    24    26    27   ar
    25    27    31    1
    26    31    32    2
    27    32    33    1
    28    33    34    2
    29    34    35    1
    30    27    28   ar
    31    28    29   ar
    32    29    36    1
    33    36    37    1
    34    36    38    1
    35    36    39    1
    36    29    30   ar
    37     6     7    1
    38     7     8    1
    39    11     9    1
    40    17    12   ar
    41     8     3    1
    42    30    25   ar
    43    35    31    1
@<TRIPOS>MOLECULE
*****
 39 43 0 0 0
SMALL
GASTEIGER

@<TRIPOS>ATOM
      1 O         144.6462  140.1055  157.8228 O.2     1  UNL1       -0.2749
      2 C         143.3557  139.4299  158.1809 C.2     1  UNL1        0.2256
      3 N         142.8110  139.5435  159.5739 N.am    1  UNL1       -0.2766
      4 C         141.5205  138.8679  159.9320 C.3     1  UNL1        0.1126
      5 C         140.9758  138.9814  161.3250 C.3     1  UNL1        0.1173
      6 N         141.7216  139.7706  162.3599 N.3     1  UNL1       -0.1520
      7 C         143.0121  140.4462  162.0018 C.3     1  UNL1        0.1173
      8 C         143.5568  140.3326  160.6088 C.3     1  UNL1        0.1126
      9 C         142.6099  138.6408  157.1460 C.3     1  UNL1        0.0811
     10 C         141.6769  138.5923  155.9726 C.3     1  UNL1        0.0142
     11 C         142.2511  137.3224  156.5271 C.3     1  UNL1        0.0314
     12 C         142.3756  135.8280  156.4899 C.ar    1  UNL1       -0.0220
     13 C         141.6007  135.0358  155.4791 C.ar    1  UNL1       -0.0043
     14 C         141.7251  133.5414  155.4419 C.ar    1  UNL1        0.0035
     15 C         142.6246  132.8393  156.4156 C.ar    1  UNL1        0.0714
     16 C         143.3995  133.6315  157.4265 C.ar    1  UNL1        0.0035
     17 C         143.2750  135.1258  157.4636 C.ar    1  UNL1       -0.0043
     18 C         142.7490  131.3449  156.3784 C.3     1  UNL1        0.4186
     19 F         142.8734  129.8506  156.3412 F       1  UNL1       -0.1659
     20 F         144.0588  131.4359  157.1036 F       1  UNL1       -0.1659
     21 F         141.4392  131.2539  155.6532 F       1  UNL1       -0.1659
     22 S         141.1770  139.8842  163.7529 S.O2    1  UNL1        0.0634
     23 O         139.7808  139.9084  163.2050 O.2     1  UNL1       -0.1528
     24 O         142.5731  139.8599  164.3007 O.2     1  UNL1       -0.1528
     25 C         140.6323  139.9977  165.1459 C.ar    1  UNL1        0.1221
     26 C         141.2881  140.9150  166.1351 C.ar    1  UNL1        0.0197
     27 C         140.7434  141.0285  167.5281 C.ar    1  UNL1        0.0008
     28 C         139.5430  140.2248  167.9319 C.ar    1  UNL1        0.0037
     29 C         138.8873  139.3075  166.9427 C.ar    1  UNL1        0.0727
     30 C         139.4319  139.1940  165.5497 C.ar    1  UNL1        0.0238
     31 C         141.3992  141.9458  168.5174 C.2     1  UNL1        0.0249
     32 C         140.7017  142.9536  169.3822 C.2     1  UNL1        0.1194
     33 N         141.7390  143.6470  170.2148 N.2     1  UNL1       -0.1510
     34 N         143.0776  143.0677  169.8645 N.2     1  UNL1       -0.1695
     35 C         142.8675  142.0164  168.8155 C.3     1  UNL1        0.1771
     36 C         137.6869  138.5038  167.3465 C.3     1  UNL1        0.4186
     37 F         136.4865  137.7000  167.7503 F       1  UNL1       -0.1659
     38 F         137.6501  139.2205  168.6637 F       1  UNL1       -0.1659
     39 F         137.7237  137.7871  166.0293 F       1  UNL1       -0.1659
@<TRIPOS>BOND
     1     1     2    2
     2     9     2    1
     3     9    10    1
     4    10    11    1
     5    11    12    1
     6    12    13   ar
     7    13    14   ar
     8    14    15   ar
     9    15    18    1
    10    18    19    1
    11    18    20    1
    12    18    21    1
    13    15    16   ar
    14    16    17   ar
    15     2     3   am
    16     3     4    1
    17     4     5    1
    18     5     6    1
    19     6    22    1
    20    22    23    2
    21    22    24    2
    22    22    25    1
    23    25    26   ar
    24    26    27   ar
    25    27    31    1
    26    31    32    2
    27    32    33    1
    28    33    34    2
    29    34    35    1
    30    27    28   ar
    31    28    29   ar
    32    29    36    1
    33    36    37    1
    34    36    38    1
    35    36    39    1
    36    29    30   ar
    37     6     7    1
    38     7     8    1
    39    11     9    1
    40    17    12   ar
    41     8     3    1
    42    30    25   ar
    43    35    31    1
@<TRIPOS>MOLECULE
*****
 39 43 0 0 0
SMALL
GASTEIGER

@<TRIPOS>ATOM
      1 O         145.9377  141.7107  162.8909 O.2     1  UNL1       -0.2749
      2 C         144.7829  142.6236  163.1796 C.2     1  UNL1        0.2256
      3 N         143.8788  143.0642  162.0668 N.am    1  UNL1       -0.2766
      4 C         142.7241  143.9771  162.3554 C.3     1  UNL1        0.1126
      5 C         141.8199  144.4177  161.2426 C.3     1  UNL1        0.1173
      6 N         142.0705  143.9454  159.8411 N.3     1  UNL1       -0.1520
      7 C         143.2252  143.0325  159.5524 C.3     1  UNL1        0.1173
      8 C         144.1294  142.5919  160.6653 C.3     1  UNL1        0.1126
      9 C         144.5324  143.0959  164.5811 C.3     1  UNL1        0.0811
     10 C         144.8783  143.9963  165.7298 C.3     1  UNL1        0.0142
     11 C         143.7525  143.0136  165.8597 C.3     1  UNL1        0.0314
     12 C         142.6523  142.3986  166.6730 C.ar    1  UNL1       -0.0220
     13 C         141.3035  142.1692  166.0581 C.ar    1  UNL1       -0.0043
     14 C         140.2034  141.5542  166.8714 C.ar    1  UNL1        0.0035
     15 C         140.4520  141.1687  168.2995 C.ar    1  UNL1        0.0714
     16 C         141.8007  141.3981  168.9144 C.ar    1  UNL1        0.0035
     17 C         142.9009  142.0131  168.1011 C.ar    1  UNL1       -0.0043
     18 C         139.3517  140.5537  169.1128 C.3     1  UNL1        0.4186
     19 F         138.2515  139.9388  169.9261 F       1  UNL1       -0.1659
     20 F         139.1198  139.5395  168.0323 F       1  UNL1       -0.1659
     21 F         139.5836  141.5679  170.1933 F       1  UNL1       -0.1659
     22 S         141.1664  144.3859  158.7283 S.O2    1  UNL1        0.0634
     23 O         140.5457  143.0208  158.6920 O.2     1  UNL1       -0.1528
     24 O         141.7870  145.7510  158.7645 O.2     1  UNL1       -0.1528
     25 C         140.2622  144.8266  157.6154 C.ar    1  UNL1        0.1221
     26 C         140.1292  146.2847  157.2899 C.ar    1  UNL1        0.0197
     27 C         139.2250  146.7253  156.1771 C.ar    1  UNL1        0.0008
     28 C         138.4540  145.7077  155.3898 C.ar    1  UNL1        0.0037
     29 C         138.5870  144.2495  155.7152 C.ar    1  UNL1        0.0727
     30 C         139.4911  143.8090  156.8281 C.ar    1  UNL1        0.0238
     31 C         139.0919  148.1836  155.8516 C.2     1  UNL1        0.0249
     32 C         139.5800  148.8563  154.6030 C.2     1  UNL1        0.1194
     33 N         139.2371  150.3136  154.6972 N.2     1  UNL1       -0.1510
     34 N         138.5371  150.5414  156.0042 N.2     1  UNL1       -0.1695
     35 C         138.4474  149.2249  156.7175 C.3     1  UNL1        0.1771
     36 C         137.8160  143.2319  154.9279 C.3     1  UNL1        0.4186
     37 F         137.0449  142.2143  154.1405 F       1  UNL1       -0.1659
     38 F         139.0876  142.4893  154.6424 F       1  UNL1       -0.1659
     39 F         136.5443  143.9746  155.2133 F       1  UNL1       -0.1659
@<TRIPOS>BOND
     1     1     2    2
     2     9     2    1
     3     9    10    1
     4    10    11    1
     5    11    12    1
     6    12    13   ar
     7    13    14   ar
     8    14    15   ar
     9    15    18    1
    10    18    19    1
    11    18    20    1
    12    18    21    1
    13    15    16   ar
    14    16    17   ar
    15     2     3   am
    16     3     4    1
    17     4     5    1
    18     5     6    1
    19     6    22    1
    20    22    23    2
    21    22    24    2
    22    22    25    1
    23    25    26   ar
    24    26    27   ar
    25    27    31    1
    26    31    32    2
    27    32    33    1
    28    33    34    2
    29    34    35    1
    30    27    28   ar
    31    28    29   ar
    32    29    36    1
    33    36    37    1
    34    36    38    1
    35    36    39    1
    36    29    30   ar
    37     6     7    1
    38     7     8    1
    39    11     9    1
    40    17    12   ar
    41     8     3    1
    42    30    25   ar
    43    35    31    1
@<TRIPOS>MOLECULE
*****
 39 43 0 0 0
SMALL
GASTEIGER

@<TRIPOS>ATOM
      1 O         145.8467  141.6353  162.8146 O.2     1  UNL1       -0.2749
      2 C         144.7146  142.5752  163.1066 C.2     1  UNL1        0.2256
      3 N         143.8160  143.0345  161.9970 N.am    1  UNL1       -0.2766
      4 C         142.6839  143.9744  162.2890 C.3     1  UNL1        0.1126
      5 C         141.7852  144.4338  161.1794 C.3     1  UNL1        0.1173
      6 N         142.0185  143.9533  159.7777 N.3     1  UNL1       -0.1520
      7 C         143.1505  143.0135  159.4856 C.3     1  UNL1        0.1173
      8 C         144.0493  142.5541  160.5953 C.3     1  UNL1        0.1126
      9 C         144.4814  143.0557  164.5083 C.3     1  UNL1        0.0811
     10 C         144.8471  143.9565  165.6505 C.3     1  UNL1        0.0142
     11 C         143.7115  142.9870  165.7938 C.3     1  UNL1        0.0314
     12 C         142.6114  142.3876  166.6188 C.ar    1  UNL1       -0.0220
     13 C         141.2535  142.1759  166.0178 C.ar    1  UNL1       -0.0043
     14 C         140.1534  141.5765  166.8428 C.ar    1  UNL1        0.0035
     15 C         140.4113  141.1889  168.2687 C.ar    1  UNL1        0.0714
     16 C         141.7692  141.4006  168.8696 C.ar    1  UNL1        0.0035
     17 C         142.8693  141.9999  168.0447 C.ar    1  UNL1       -0.0043
     18 C         139.3112  140.5894  169.0937 C.3     1  UNL1        0.4186
     19 F         138.2111  139.9901  169.9186 F       1  UNL1       -0.1659
     20 F         139.1741  139.4738  168.1004 F       1  UNL1       -0.1659
     21 F         139.4482  141.7051  170.0869 F       1  UNL1       -0.1659
     22 S         141.1199  144.4127  158.6680 S.O2    1  UNL1        0.0634
     23 O         141.9126  145.6808  158.5509 O.2     1  UNL1       -0.1528
     24 O         140.3272  143.1446  158.7851 O.2     1  UNL1       -0.1528
     25 C         140.2211  144.8720  157.5584 C.ar    1  UNL1        0.1221
     26 C         139.5191  143.8650  156.6963 C.ar    1  UNL1        0.0197
     27 C         138.6204  144.3244  155.5867 C.ar    1  UNL1        0.0008
     28 C         138.4237  145.7907  155.3391 C.ar    1  UNL1        0.0037
     29 C         139.1257  146.7976  156.2012 C.ar    1  UNL1        0.0727
     30 C         140.0244  146.3383  157.3108 C.ar    1  UNL1        0.0238
     31 C         137.9184  143.3174  154.7245 C.2     1  UNL1        0.0249
     32 C         136.7895  143.6011  153.7784 C.2     1  UNL1        0.1194
     33 N         136.3955  142.3090  153.1263 N.2     1  UNL1       -0.1510
     34 N         137.2808  141.2268  153.6694 N.2     1  UNL1       -0.1695
     35 C         138.2220  141.8501  154.6571 C.3     1  UNL1        0.1771
     36 C         138.9290  148.2639  155.9537 C.3     1  UNL1        0.4186
     37 F         138.7323  149.7302  155.7062 F       1  UNL1       -0.1659
     38 F         139.2323  148.0591  154.4990 F       1  UNL1       -0.1659
     39 F         138.6257  148.4688  157.4083 F       1  UNL1       -0.1659
@<TRIPOS>BOND
     1     1     2    2
     2     9     2    1
     3     9    10    1
     4    10    11    1
     5    11    12    1
     6    12    13   ar
     7    13    14   ar
     8    14    15   ar
     9    15    18    1
    10    18    19    1
    11    18    20    1
    12    18    21    1
    13    15    16   ar
    14    16    17   ar
    15     2     3   am
    16     3     4    1
    17     4     5    1
    18     5     6    1
    19     6    22    1
    20    22    23    2
    21    22    24    2
    22    22    25    1
    23    25    26   ar
    24    26    27   ar
    25    27    31    1
    26    31    32    2
    27    32    33    1
    28    33    34    2
    29    34    35    1
    30    27    28   ar
    31    28    29   ar
    32    29    36    1
    33    36    37    1
    34    36    38    1
    35    36    39    1
    36    29    30   ar
    37     6     7    1
    38     7     8    1
    39    11     9    1
    40    17    12   ar
    41     8     3    1
    42    30    25   ar
    43    35    31    1
@<TRIPOS>MOLECULE
*****
 39 43 0 0 0
SMALL
GASTEIGER

@<TRIPOS>ATOM
      1 O         142.0101  145.8016  158.4604 O.2     1  UNL1       -0.2749
      2 C         141.9388  144.3082  158.5825 C.2     1  UNL1        0.2256
      3 N         141.5538  143.6801  159.8891 N.am    1  UNL1       -0.2766
      4 C         141.4826  142.1867  160.0113 C.3     1  UNL1        0.1126
      5 C         141.0976  141.5586  161.3179 C.3     1  UNL1        0.1173
      6 N         140.7839  142.4238  162.5023 N.3     1  UNL1       -0.1520
      7 C         140.8551  143.9171  162.3802 C.3     1  UNL1        0.1173
      8 C         141.2401  144.5453  161.0736 C.3     1  UNL1        0.1126
      9 C         142.2525  143.4430  157.3980 C.3     1  UNL1        0.0811
     10 C         141.7909  142.5951  156.2501 C.3     1  UNL1        0.0142
     11 C         143.2576  142.7924  156.4944 C.3     1  UNL1        0.0314
     12 C         144.6848  142.5308  156.1138 C.ar    1  UNL1       -0.0220
     13 C         145.7606  142.5803  157.1578 C.ar    1  UNL1       -0.0043
     14 C         147.1877  142.3186  156.7771 C.ar    1  UNL1        0.0035
     15 C         147.5389  142.0075  155.3524 C.ar    1  UNL1        0.0714
     16 C         146.4631  141.9580  154.3084 C.ar    1  UNL1        0.0035
     17 C         145.0360  142.2197  154.6890 C.ar    1  UNL1       -0.0043
     18 C         148.9661  141.7459  154.9718 C.3     1  UNL1        0.4186
     19 F         150.3932  141.4842  154.5911 F       1  UNL1       -0.1659
     20 F         149.3918  142.0108  156.3855 F       1  UNL1       -0.1659
     21 F         148.5404  141.4810  153.5581 F       1  UNL1       -0.1659
     22 S         140.3989  141.7957  163.8089 S.O2    1  UNL1        0.0634
     23 O         139.8765  143.1169  164.2902 O.2     1  UNL1       -0.1528
     24 O         140.9213  140.4745  163.3277 O.2     1  UNL1       -0.1528
     25 C         140.0139  141.1675  165.1156 C.ar    1  UNL1        0.1221
     26 C         140.3726  141.8419  166.4065 C.ar    1  UNL1        0.0197
     27 C         139.9876  141.2137  167.7130 C.ar    1  UNL1        0.0008
     28 C         139.2440  139.9111  167.7287 C.ar    1  UNL1        0.0037
     29 C         138.8853  139.2367  166.4378 C.ar    1  UNL1        0.0727
     30 C         139.2703  139.8649  165.1312 C.ar    1  UNL1        0.0238
     31 C         140.3463  141.8881  169.0040 C.2     1  UNL1        0.0249
     32 C         139.5872  141.7844  170.2936 C.2     1  UNL1        0.1194
     33 N         140.2988  142.6168  171.3186 N.2     1  UNL1       -0.1510
     34 N         141.4977  143.2350  170.6626 N.2     1  UNL1       -0.1695
     35 C         141.5270  142.7846  169.2321 C.3     1  UNL1        0.1771
     36 C         138.1416  137.9341  166.4534 C.3     1  UNL1        0.4186
     37 F         137.3980  136.6316  166.4691 F       1  UNL1       -0.1659
     38 F         137.2245  138.4705  167.5123 F       1  UNL1       -0.1659
     39 F         139.0588  137.3978  165.3946 F       1  UNL1       -0.1659
@<TRIPOS>BOND
     1     1     2    2
     2     9     2    1
     3     9    10    1
     4    10    11    1
     5    11    12    1
     6    12    13   ar
     7    13    14   ar
     8    14    15   ar
     9    15    18    1
    10    18    19    1
    11    18    20    1
    12    18    21    1
    13    15    16   ar
    14    16    17   ar
    15     2     3   am
    16     3     4    1
    17     4     5    1
    18     5     6    1
    19     6    22    1
    20    22    23    2
    21    22    24    2
    22    22    25    1
    23    25    26   ar
    24    26    27   ar
    25    27    31    1
    26    31    32    2
    27    32    33    1
    28    33    34    2
    29    34    35    1
    30    27    28   ar
    31    28    29   ar
    32    29    36    1
    33    36    37    1
    34    36    38    1
    35    36    39    1
    36    29    30   ar
    37     6     7    1
    38     7     8    1
    39    11     9    1
    40    17    12   ar
    41     8     3    1
    42    30    25   ar
    43    35    31    1
@<TRIPOS>MOLECULE
*****
 39 43 0 0 0
SMALL
GASTEIGER

@<TRIPOS>ATOM
      1 O         140.6258  136.9844  163.8530 O.2     1  UNL1       -0.2749
      2 C         139.7068  138.1683  163.9157 C.2     1  UNL1        0.2256
      3 N         139.3297  138.8926  162.6575 N.am    1  UNL1       -0.2766
      4 C         138.4106  140.0765  162.7203 C.3     1  UNL1        0.1126
      5 C         138.0335  140.8007  161.4621 C.3     1  UNL1        0.1173
      6 N         138.5754  140.3412  160.1410 N.3     1  UNL1       -0.1520
      7 C         139.4944  139.1573  160.0782 C.3     1  UNL1        0.1173
      8 C         139.8715  138.4330  161.3365 C.3     1  UNL1        0.1126
      9 C         139.1649  138.6279  165.2368 C.3     1  UNL1        0.0811
     10 C         138.0568  138.6564  166.2473 C.3     1  UNL1        0.0142
     11 C         139.3345  139.3953  166.5143 C.3     1  UNL1        0.0314
     12 C         140.1702  140.2651  167.4061 C.ar    1  UNL1       -0.0220
     13 C         139.6739  140.6343  168.7726 C.ar    1  UNL1       -0.0043
     14 C         140.5096  141.5040  169.6643 C.ar    1  UNL1        0.0035
     15 C         141.8415  142.0046  169.1895 C.ar    1  UNL1        0.0714
     16 C         142.3378  141.6354  167.8230 C.ar    1  UNL1        0.0035
     17 C         141.5021  140.7656  166.9313 C.ar    1  UNL1       -0.0043
     18 C         142.6772  142.8744  170.0813 C.3     1  UNL1        0.4186
     19 F         143.5128  143.7441  170.9731 F       1  UNL1       -0.1659
     20 F         143.7713  141.8487  170.0565 F       1  UNL1       -0.1659
     21 F         141.5830  143.9001  170.1062 F       1  UNL1       -0.1659
     22 S         138.1983  141.0654  158.8828 S.O2    1  UNL1        0.0634
     23 O         138.1696  139.7619  158.1410 O.2     1  UNL1       -0.1528
     24 O         138.2270  142.3689  159.6245 O.2     1  UNL1       -0.1528
     25 C         137.8212  141.7898  157.6245 C.ar    1  UNL1        0.1221
     26 C         138.6060  142.9907  157.1865 C.ar    1  UNL1        0.0197
     27 C         138.2289  143.7149  155.9283 C.ar    1  UNL1        0.0008
     28 C         137.0669  143.2383  155.1081 C.ar    1  UNL1        0.0037
     29 C         136.2821  142.0375  155.5461 C.ar    1  UNL1        0.0727
     30 C         136.6592  141.3132  156.8043 C.ar    1  UNL1        0.0238
     31 C         139.0137  144.9159  155.4902 C.2     1  UNL1        0.0249
     32 C         138.4798  146.3089  155.3334 C.2     1  UNL1        0.1194
     33 N         139.6064  147.1885  154.8783 N.2     1  UNL1       -0.1510
     34 N         140.8364  146.3392  154.7538 N.2     1  UNL1       -0.1695
     35 C         140.4701  144.9346  155.1320 C.3     1  UNL1        0.1771
     36 C         135.1201  141.5609  154.7259 C.3     1  UNL1        0.4186
     37 F         133.9581  141.0843  153.9057 F       1  UNL1       -0.1659
     38 F         135.7931  142.0607  153.4820 F       1  UNL1       -0.1659
     39 F         134.4471  141.0610  155.9698 F       1  UNL1       -0.1659
@<TRIPOS>BOND
     1     1     2    2
     2     9     2    1
     3     9    10    1
     4    10    11    1
     5    11    12    1
     6    12    13   ar
     7    13    14   ar
     8    14    15   ar
     9    15    18    1
    10    18    19    1
    11    18    20    1
    12    18    21    1
    13    15    16   ar
    14    16    17   ar
    15     2     3   am
    16     3     4    1
    17     4     5    1
    18     5     6    1
    19     6    22    1
    20    22    23    2
    21    22    24    2
    22    22    25    1
    23    25    26   ar
    24    26    27   ar
    25    27    31    1
    26    31    32    2
    27    32    33    1
    28    33    34    2
    29    34    35    1
    30    27    28   ar
    31    28    29   ar
    32    29    36    1
    33    36    37    1
    34    36    38    1
    35    36    39    1
    36    29    30   ar
    37     6     7    1
    38     7     8    1
    39    11     9    1
    40    17    12   ar
    41     8     3    1
    42    30    25   ar
    43    35    31    1
@<TRIPOS>MOLECULE
*****
 39 43 0 0 0
SMALL
GASTEIGER

@<TRIPOS>ATOM
      1 O         138.7586  143.7313  156.6099 O.2     1  UNL1       -0.2749
      2 C         138.1482  142.4628  157.1281 C.2     1  UNL1        0.2256
      3 N         138.3422  142.0684  158.5622 N.am    1  UNL1       -0.2766
      4 C         137.7318  140.7999  159.0804 C.3     1  UNL1        0.1126
      5 C         137.9257  140.4055  160.5146 C.3     1  UNL1        0.1173
      6 N         138.7301  141.2796  161.4306 N.3     1  UNL1       -0.1520
      7 C         139.3405  142.5480  160.9125 C.3     1  UNL1        0.1173
      8 C         139.1465  142.9424  159.4783 C.3     1  UNL1        0.1126
      9 C         137.3438  141.5888  156.2121 C.3     1  UNL1        0.0811
     10 C         137.2506  140.7316  154.9847 C.3     1  UNL1        0.0142
     11 C         136.0439  140.9322  155.8529 C.3     1  UNL1        0.0314
     12 C         134.5967  140.6689  156.1468 C.ar    1  UNL1       -0.0220
     13 C         133.5317  141.3342  155.3264 C.ar    1  UNL1       -0.0043
     14 C         132.0846  141.0709  155.6203 C.ar    1  UNL1        0.0035
     15 C         131.7024  140.1424  156.7346 C.ar    1  UNL1        0.0714
     16 C         132.7674  139.4771  157.5550 C.ar    1  UNL1        0.0035
     17 C         134.2145  139.7404  157.2611 C.ar    1  UNL1       -0.0043
     18 C         130.2552  139.8791  157.0285 C.3     1  UNL1        0.4186
     19 F         128.8080  139.6159  157.3223 F       1  UNL1       -0.1659
     20 F         130.6468  138.7860  157.9781 F       1  UNL1       -0.1659
     21 F         129.8636  140.9722  156.0789 F       1  UNL1       -0.1659
     22 S         138.9241  140.8852  162.8647 S.O2    1  UNL1        0.0634
     23 O         140.4059  140.8108  162.6439 O.2     1  UNL1       -0.1528
     24 O         137.4423  140.9595  163.0856 O.2     1  UNL1       -0.1528
     25 C         139.1180  140.4908  164.2989 C.ar    1  UNL1        0.1221
     26 C         140.0917  141.2415  165.1581 C.ar    1  UNL1        0.0197
     27 C         140.2856  140.8470  166.5923 C.ar    1  UNL1        0.0008
     28 C         139.5058  139.7019  167.1672 C.ar    1  UNL1        0.0037
     29 C         138.5321  138.9512  166.3080 C.ar    1  UNL1        0.0727
     30 C         138.3382  139.3456  164.8739 C.ar    1  UNL1        0.0238
     31 C         141.2594  141.5978  167.4515 C.2     1  UNL1        0.0249
     32 C         142.7297  141.7465  167.1946 C.2     1  UNL1        0.1194
     33 N         143.3127  142.5722  168.3029 N.2     1  UNL1       -0.1510
     34 N         142.2028  142.9337  169.2448 N.2     1  UNL1       -0.1695
     35 C         140.9337  142.3315  168.7186 C.3     1  UNL1        0.1771
     36 C         137.7523  137.8060  166.8829 C.3     1  UNL1        0.4186
     37 F         136.9725  136.6609  167.4578 F       1  UNL1       -0.1659
     38 F         137.2751  138.6902  167.9967 F       1  UNL1       -0.1659
     39 F         138.2295  136.9219  165.7691 F       1  UNL1       -0.1659
@<TRIPOS>BOND
     1     1     2    2
     2     9     2    1
     3     9    10    1
     4    10    11    1
     5    11    12    1
     6    12    13   ar
     7    13    14   ar
     8    14    15   ar
     9    15    18    1
    10    18    19    1
    11    18    20    1
    12    18    21    1
    13    15    16   ar
    14    16    17   ar
    15     2     3   am
    16     3     4    1
    17     4     5    1
    18     5     6    1
    19     6    22    1
    20    22    23    2
    21    22    24    2
    22    22    25    1
    23    25    26   ar
    24    26    27   ar
    25    27    31    1
    26    31    32    2
    27    32    33    1
    28    33    34    2
    29    34    35    1
    30    27    28   ar
    31    28    29   ar
    32    29    36    1
    33    36    37    1
    34    36    38    1
    35    36    39    1
    36    29    30   ar
    37     6     7    1
    38     7     8    1
    39    11     9    1
    40    17    12   ar
    41     8     3    1
    42    30    25   ar
    43    35    31    1
@<TRIPOS>MOLECULE
*****
 39 43 0 0 0
SMALL
GASTEIGER

@<TRIPOS>ATOM
      1 O         143.1957  144.3451  158.2614 O.2     1  UNL1       -0.2749
      2 C         141.7524  144.1610  158.6264 C.2     1  UNL1        0.2256
      3 N         141.3847  143.5417  159.9421 N.am    1  UNL1       -0.2766
      4 C         139.9414  143.3576  160.3072 C.3     1  UNL1        0.1126
      5 C         139.5737  142.7383  161.6229 C.3     1  UNL1        0.1173
      6 N         140.6492  142.3030  162.5736 N.3     1  UNL1       -0.1520
      7 C         142.0924  142.4871  162.2087 C.3     1  UNL1        0.1173
      8 C         142.4602  143.1064  160.8929 C.3     1  UNL1        0.1126
      9 C         140.6770  144.5962  157.6757 C.3     1  UNL1        0.0811
     10 C         140.0711  145.6462  156.7922 C.3     1  UNL1        0.0142
     11 C         139.4201  144.3002  156.9124 C.3     1  UNL1        0.0314
     12 C         138.3186  143.3520  156.5411 C.ar    1  UNL1       -0.0220
     13 C         138.1785  142.0452  157.2638 C.ar    1  UNL1       -0.0043
     14 C         137.0770  141.0971  156.8925 C.ar    1  UNL1        0.0035
     15 C         136.1156  141.4560  155.7984 C.ar    1  UNL1        0.0714
     16 C         136.2557  142.7629  155.0757 C.ar    1  UNL1        0.0035
     17 C         137.3572  143.7109  155.4470 C.ar    1  UNL1       -0.0043
     18 C         135.0141  140.5079  155.4271 C.3     1  UNL1        0.4186
     19 F         133.9126  139.5599  155.0559 F       1  UNL1       -0.1659
     20 F         136.0246  139.4230  155.1994 F       1  UNL1       -0.1659
     21 F         134.0036  141.5927  155.6549 F       1  UNL1       -0.1659
     22 S         140.2814  141.6837  163.8894 S.O2    1  UNL1        0.0634
     23 O         138.8672  141.5195  163.4169 O.2     1  UNL1       -0.1528
     24 O         141.6955  141.8478  164.3619 O.2     1  UNL1       -0.1528
     25 C         139.9137  141.0644  165.2052 C.ar    1  UNL1        0.1221
     26 C         140.3179  141.7307  166.4868 C.ar    1  UNL1        0.0197
     27 C         139.9502  141.1114  167.8025 C.ar    1  UNL1        0.0008
     28 C         139.1783  139.8257  167.8366 C.ar    1  UNL1        0.0037
     29 C         138.7741  139.1594  166.5550 C.ar    1  UNL1        0.0727
     30 C         139.1418  139.7787  165.2393 C.ar    1  UNL1        0.0238
     31 C         140.3544  141.7777  169.0842 C.2     1  UNL1        0.0249
     32 C         140.5997  143.2450  169.2759 C.2     1  UNL1        0.1194
     33 N         140.9812  143.4678  170.7094 N.2     1  UNL1       -0.1510
     34 N         140.9716  142.1382  171.4036 N.2     1  UNL1       -0.1695
     35 C         140.5843  141.0937  170.3991 C.3     1  UNL1        0.1771
     36 C         138.0021  137.8737  166.5891 C.3     1  UNL1        0.4186
     37 F         137.2302  136.5880  166.6232 F       1  UNL1       -0.1659
     38 F         138.8530  137.3334  165.4782 F       1  UNL1       -0.1659
     39 F         137.1513  138.4140  167.7000 F       1  UNL1       -0.1659
@<TRIPOS>BOND
     1     1     2    2
     2     9     2    1
     3     9    10    1
     4    10    11    1
     5    11    12    1
     6    12    13   ar
     7    13    14   ar
     8    14    15   ar
     9    15    18    1
    10    18    19    1
    11    18    20    1
    12    18    21    1
    13    15    16   ar
    14    16    17   ar
    15     2     3   am
    16     3     4    1
    17     4     5    1
    18     5     6    1
    19     6    22    1
    20    22    23    2
    21    22    24    2
    22    22    25    1
    23    25    26   ar
    24    26    27   ar
    25    27    31    1
    26    31    32    2
    27    32    33    1
    28    33    34    2
    29    34    35    1
    30    27    28   ar
    31    28    29   ar
    32    29    36    1
    33    36    37    1
    34    36    38    1
    35    36    39    1
    36    29    30   ar
    37     6     7    1
    38     7     8    1
    39    11     9    1
    40    17    12   ar
    41     8     3    1
    42    30    25   ar
    43    35    31    1
@<TRIPOS>MOLECULE
*****
 39 43 0 0 0
SMALL
GASTEIGER

@<TRIPOS>ATOM
      1 O         137.1753  141.1534  163.0895 O.2     1  UNL1       -0.2749
      2 C         138.2899  140.1764  163.3206 C.2     1  UNL1        0.2256
      3 N         139.1548  139.7406  162.1752 N.am    1  UNL1       -0.2766
      4 C         140.2693  138.7636  162.4063 C.3     1  UNL1        0.1126
      5 C         141.1342  138.3278  161.2609 C.3     1  UNL1        0.1173
      6 N         140.8847  138.8690  159.8843 N.3     1  UNL1       -0.1520
      7 C         139.7702  139.8459  159.6532 C.3     1  UNL1        0.1173
      8 C         138.9052  140.2817  160.7986 C.3     1  UNL1        0.1126
      9 C         138.5395  139.6352  164.6971 C.3     1  UNL1        0.0811
     10 C         138.3457  138.5603  165.7252 C.3     1  UNL1        0.0142
     11 C         139.1655  139.7728  166.0532 C.3     1  UNL1        0.0314
     12 C         140.0003  140.5524  167.0256 C.ar    1  UNL1       -0.0220
     13 C         141.1088  141.4311  166.5265 C.ar    1  UNL1       -0.0043
     14 C         141.9435  142.2106  167.4989 C.ar    1  UNL1        0.0035
     15 C         141.6698  142.1114  168.9703 C.ar    1  UNL1        0.0714
     16 C         140.5613  141.2327  169.4694 C.ar    1  UNL1        0.0035
     17 C         139.7266  140.4532  168.4971 C.ar    1  UNL1       -0.0043
     18 C         142.5046  142.8910  169.9427 C.3     1  UNL1        0.4186
     19 F         143.3394  143.6705  170.9150 F       1  UNL1       -0.1659
     20 F         141.4286  143.9323  170.0317 F       1  UNL1       -0.1659
     21 F         143.5806  141.8497  169.8537 F       1  UNL1       -0.1659
     22 S         141.7496  138.4332  158.7389 S.O2    1  UNL1        0.0634
     23 O         142.9056  138.2578  159.6786 O.2     1  UNL1       -0.1528
     24 O         140.5936  138.6085  157.7993 O.2     1  UNL1       -0.1528
     25 C         142.6145  137.9974  157.5934 C.ar    1  UNL1        0.1221
     26 C         143.3703  139.0170  156.7941 C.ar    1  UNL1        0.0197
     27 C         144.2352  138.5812  155.6487 C.ar    1  UNL1        0.0008
     28 C         144.3442  137.1257  155.3026 C.ar    1  UNL1        0.0037
     29 C         143.5883  136.1061  156.1019 C.ar    1  UNL1        0.0727
     30 C         142.7235  136.5419  157.2474 C.ar    1  UNL1        0.0238
     31 C         144.9911  139.6008  154.8493 C.2     1  UNL1        0.0249
     32 C         145.9624  140.6053  155.3946 C.2     1  UNL1        0.1194
     33 N         146.4800  141.4202  154.2465 N.2     1  UNL1       -0.1510
     34 N         145.8285  140.9194  152.9917 N.2     1  UNL1       -0.1695
     35 C         144.9083  139.7949  153.3643 C.3     1  UNL1        0.1771
     36 C         143.6973  134.6506  155.7559 C.3     1  UNL1        0.4186
     37 F         143.8063  133.1952  155.4098 F       1  UNL1       -0.1659
     38 F         143.2309  134.9473  154.3614 F       1  UNL1       -0.1659
     39 F         144.1637  134.3540  157.1503 F       1  UNL1       -0.1659
@<TRIPOS>BOND
     1     1     2    2
     2     9     2    1
     3     9    10    1
     4    10    11    1
     5    11    12    1
     6    12    13   ar
     7    13    14   ar
     8    14    15   ar
     9    15    18    1
    10    18    19    1
    11    18    20    1
    12    18    21    1
    13    15    16   ar
    14    16    17   ar
    15     2     3   am
    16     3     4    1
    17     4     5    1
    18     5     6    1
    19     6    22    1
    20    22    23    2
    21    22    24    2
    22    22    25    1
    23    25    26   ar
    24    26    27   ar
    25    27    31    1
    26    31    32    2
    27    32    33    1
    28    33    34    2
    29    34    35    1
    30    27    28   ar
    31    28    29   ar
    32    29    36    1
    33    36    37    1
    34    36    38    1
    35    36    39    1
    36    29    30   ar
    37     6     7    1
    38     7     8    1
    39    11     9    1
    40    17    12   ar
    41     8     3    1
    42    30    25   ar
    43    35    31    1
