@<TRIPOS>MOLECULE
*****
 38 42 0 0 0
SMALL
GASTEIGER

@<TRIPOS>ATOM
      1 C         139.4444  138.9106  162.6219 C.ar    1  UNL1        0.0104
      2 C         140.4201  138.2785  161.6740 C.ar    1  UNL1        0.0078
      3 C         140.8847  139.0318  160.4630 C.ar    1  UNL1        0.1095
      4 C         140.3736  140.4173  160.1998 C.ar    1  UNL1        0.2691
      5 O         140.8382  141.1706  158.9888 O.2     1  UNL1       -0.2665
      6 N         139.3979  141.0494  161.1477 N.ar    1  UNL1       -0.2733
      7 C         138.8868  142.4349  160.8845 C.ar    1  UNL1        0.0829
      8 C         137.9111  143.0670  161.8324 C.ar    1  UNL1        0.0191
      9 C         137.4465  142.3136  163.0434 C.ar    1  UNL1        0.0030
     10 C         137.9576  140.9282  163.3066 C.ar    1  UNL1        0.0174
     11 C         138.9333  140.2961  162.3587 C.ar    1  UNL1        0.0642
     12 C         141.8604  138.3997  159.5151 C.2     1  UNL1        0.2505
     13 O         143.2101  137.9671  160.0061 O.2     1  UNL1       -0.2700
     14 N         141.4864  138.2002  158.0762 N.am    1  UNL1       -0.3000
     15 H         140.6005  138.4841  157.7540 H       1  UNL1        0.1498
     16 C         142.4621  137.5681  157.1284 C.3     1  UNL1        0.0986
     17 C         142.5877  136.0745  157.0669 C.3     1  UNL1        0.0220
     18 C         143.5634  135.4424  156.1191 C.3     1  UNL1        0.0019
     19 C         144.4135  136.3037  155.2328 C.3     1  UNL1        0.0026
     20 C         144.2879  137.7972  155.2943 C.3     1  UNL1        0.0309
     21 C         143.3122  138.4294  156.2422 C.3     1  UNL1        0.1283
     22 O         143.1866  139.9228  156.3037 O.3     1  UNL1       -0.3828
     23 H         143.8022  140.3254  155.6713 H       1  UNL1        0.2104
     24 C         138.9798  138.1572  163.8329 C.3     1  UNL1        0.1006
     25 C         139.6351  139.8754  167.9400 C.3     1  UNL1        0.1007
     26 C         140.7094  139.9890  166.8993 C.3     1  UNL1        0.0356
     27 C         140.4910  139.4163  165.5303 C.3     1  UNL1        0.0738
     28 N         139.1982  138.7299  165.2019 N.3     1  UNL1       -0.2688
     29 C         138.1239  138.6163  166.2426 C.3     1  UNL1        0.0738
     30 C         138.3424  139.1891  167.6117 C.3     1  UNL1        0.0356
     31 C         140.6809  140.6110  168.7244 C.ar    1  UNL1       -0.0096
     32 C         141.7481  139.8478  169.4515 C.ar    1  UNL1       -0.0033
     33 C         142.7938  140.5834  170.2359 C.ar    1  UNL1       -0.0003
     34 C         142.7725  142.0821  170.2932 C.ar    1  UNL1       -0.0000
     35 C         141.7053  142.8453  169.5660 C.ar    1  UNL1       -0.0003
     36 C         140.6595  142.1097  168.7816 C.ar    1  UNL1       -0.0033
     37 N         138.2128  140.1592  170.5662 N.1     1  UNL1       -0.1956
     38 C         138.9240  140.0172  169.2531 C.1     1  UNL1        0.0753
@<TRIPOS>BOND
     1    37    38    3
     2    38    25    1
     3    25    31    1
     4    31    32   ar
     5    32    33   ar
     6    33    34   ar
     7    34    35   ar
     8    35    36   ar
     9    25    26    1
    10    26    27    1
    11    27    28    1
    12    28    24    1
    13    24     1    1
    14     1     2   ar
    15     2     3   ar
    16     3    12    1
    17    12    13    2
    18    12    14   am
    19    16    14    1
    20    16    17    1
    21    17    18    1
    22    18    19    1
    23    19    20    1
    24    20    21    1
    25    21    22    1
    26     3     4   ar
    27     4     5    2
    28     4     6   ar
    29     6     7   ar
    30     7     8   ar
    31     8     9   ar
    32     9    10   ar
    33    10    11   ar
    34    28    29    1
    35    29    30    1
    36    30    25    1
    37    36    31   ar
    38    11     1   ar
    39    21    16    1
    40    11     6   ar
    41    14    15    1
    42    22    23    1
@<TRIPOS>MOLECULE
*****
 38 42 0 0 0
SMALL
GASTEIGER

@<TRIPOS>ATOM
      1 C         140.9255  140.0676  161.0755 C.ar    1  UNL1        0.0104
      2 C         140.8687  138.9541  160.0721 C.ar    1  UNL1        0.0078
      3 C         141.9360  138.8328  159.0251 C.ar    1  UNL1        0.1095
      4 C         143.0603  139.8248  158.9817 C.ar    1  UNL1        0.2691
      5 O         144.1276  139.7034  157.9348 O.2     1  UNL1       -0.2665
      6 N         143.1172  140.9383  159.9852 N.ar    1  UNL1       -0.2733
      7 C         144.2414  141.9304  159.9418 C.ar    1  UNL1        0.0829
      8 C         144.2982  143.0438  160.9453 C.ar    1  UNL1        0.0191
      9 C         143.2309  143.1652  161.9922 C.ar    1  UNL1        0.0030
     10 C         142.1067  142.1731  162.0356 C.ar    1  UNL1        0.0174
     11 C         142.0498  141.0597  161.0321 C.ar    1  UNL1        0.0642
     12 C         141.8791  137.7192  158.0216 C.2     1  UNL1        0.2505
     13 O         140.6031  137.4380  157.2850 O.2     1  UNL1       -0.2700
     14 N         143.0982  136.8871  157.7548 N.am    1  UNL1       -0.3000
     15 H         143.9358  137.0717  158.2382 H       1  UNL1        0.1498
     16 C         143.0413  135.7737  156.7513 C.3     1  UNL1        0.0986
     17 C         142.7556  136.0766  155.3102 C.3     1  UNL1        0.0220
     18 C         142.6987  134.9632  154.3068 C.3     1  UNL1        0.0019
     19 C         142.9274  133.5468  154.7443 C.3     1  UNL1        0.0026
     20 C         143.2131  133.2438  156.1853 C.3     1  UNL1        0.0309
     21 C         143.2700  134.3572  157.1889 C.3     1  UNL1        0.1283
     22 O         143.5557  134.0543  158.6299 O.3     1  UNL1       -0.3828
     23 H         143.6777  133.0984  158.7413 H       1  UNL1        0.2104
     24 C         139.8582  140.1889  162.1224 C.3     1  UNL1        0.1006
     25 C         140.9818  140.3059  166.4783 C.3     1  UNL1        0.1007
     26 C         139.8695  141.1728  165.9671 C.3     1  UNL1        0.0356
     27 C         139.4950  141.1338  164.5152 C.3     1  UNL1        0.0738
     28 N         140.2327  140.2279  163.5744 N.3     1  UNL1       -0.2688
     29 C         141.3450  139.3610  164.0855 C.3     1  UNL1        0.0738
     30 C         141.7195  139.4000  165.5376 C.3     1  UNL1        0.0356
     31 C         140.5821  140.9936  167.7500 C.ar    1  UNL1       -0.0096
     32 C         139.6769  140.3007  168.7249 C.ar    1  UNL1       -0.0033
     33 C         139.2773  140.9884  169.9966 C.ar    1  UNL1       -0.0003
     34 C         139.7827  142.3691  170.2934 C.ar    1  UNL1       -0.0000
     35 C         140.6879  143.0621  169.3185 C.ar    1  UNL1       -0.0003
     36 C         141.0876  142.3743  168.0468 C.ar    1  UNL1       -0.0033
     37 N         142.9288  139.0498  168.3840 N.1     1  UNL1       -0.1956
     38 C         141.9553  139.6778  167.4311 C.1     1  UNL1        0.0753
@<TRIPOS>BOND
     1    37    38    3
     2    38    25    1
     3    25    31    1
     4    31    32   ar
     5    32    33   ar
     6    33    34   ar
     7    34    35   ar
     8    35    36   ar
     9    25    26    1
    10    26    27    1
    11    27    28    1
    12    28    24    1
    13    24     1    1
    14     1     2   ar
    15     2     3   ar
    16     3    12    1
    17    12    13    2
    18    12    14   am
    19    16    14    1
    20    16    17    1
    21    17    18    1
    22    18    19    1
    23    19    20    1
    24    20    21    1
    25    21    22    1
    26     3     4   ar
    27     4     5    2
    28     4     6   ar
    29     6     7   ar
    30     7     8   ar
    31     8     9   ar
    32     9    10   ar
    33    10    11   ar
    34    28    29    1
    35    29    30    1
    36    30    25    1
    37    36    31   ar
    38    11     1   ar
    39    21    16    1
    40    11     6   ar
    41    14    15    1
    42    22    23    1
@<TRIPOS>MOLECULE
*****
 38 42 0 0 0
SMALL
GASTEIGER

@<TRIPOS>ATOM
      1 C         141.7347  141.6223  161.9087 C.ar    1  UNL1        0.0104
      2 C         142.7636  141.2291  160.8905 C.ar    1  UNL1        0.0078
      3 C         143.1287  142.1783  159.7879 C.ar    1  UNL1        0.1095
      4 C         142.4649  143.5207  159.7035 C.ar    1  UNL1        0.2691
      5 O         142.8299  144.4699  158.6009 O.2     1  UNL1       -0.2665
      6 N         141.4359  143.9140  160.7216 N.ar    1  UNL1       -0.2733
      7 C         140.7720  145.2564  160.6372 C.ar    1  UNL1        0.0829
      8 C         139.7431  145.6496  161.6553 C.ar    1  UNL1        0.0191
      9 C         139.3780  144.7004  162.7579 C.ar    1  UNL1        0.0030
     10 C         140.0419  143.3580  162.8424 C.ar    1  UNL1        0.0174
     11 C         141.0708  142.9648  161.8242 C.ar    1  UNL1        0.0642
     12 C         144.1577  141.7850  158.7697 C.2     1  UNL1        0.2505
     13 O         144.3292  140.3427  158.3953 O.2     1  UNL1       -0.2700
     14 N         145.0151  142.8341  158.1261 N.am    1  UNL1       -0.3000
     15 H         144.9025  143.7807  158.3718 H       1  UNL1        0.1498
     16 C         146.0440  142.4408  157.1080 C.3     1  UNL1        0.0986
     17 C         145.6238  141.7455  155.8469 C.3     1  UNL1        0.0220
     18 C         146.6527  141.3522  154.8288 C.3     1  UNL1        0.0019
     19 C         148.1018  141.6541  155.0717 C.3     1  UNL1        0.0026
     20 C         148.5220  142.3493  156.3326 C.3     1  UNL1        0.0309
     21 C         147.4931  142.7426  157.3508 C.3     1  UNL1        0.1283
     22 O         147.9132  143.4378  158.6118 O.3     1  UNL1       -0.3828
     23 H         148.8761  143.5555  158.6107 H       1  UNL1        0.2104
     24 C         141.3696  140.6731  163.0112 C.3     1  UNL1        0.1006
     25 C         142.1001  141.8194  167.3010 C.3     1  UNL1        0.1007
     26 C         140.7379  141.3650  166.8677 C.3     1  UNL1        0.0356
     27 C         140.4944  140.9829  165.4378 C.3     1  UNL1        0.0738
     28 N         141.6131  141.0552  164.4411 N.3     1  UNL1       -0.2688
     29 C         142.9754  141.5096  164.8745 C.3     1  UNL1        0.0738
     30 C         143.2189  141.8917  166.3045 C.3     1  UNL1        0.0356
     31 C         141.3659  141.9166  168.6054 C.ar    1  UNL1       -0.0096
     32 C         141.3665  140.7552  169.5548 C.ar    1  UNL1       -0.0033
     33 C         140.6322  140.8525  170.8592 C.ar    1  UNL1       -0.0003
     34 C         139.8975  142.1110  171.2142 C.ar    1  UNL1       -0.0000
     35 C         139.8970  143.2724  170.2649 C.ar    1  UNL1       -0.0003
     36 C         140.6312  143.1752  168.9605 C.ar    1  UNL1       -0.0033
     37 N         144.3147  142.7958  169.0737 N.1     1  UNL1       -0.1956
     38 C         143.2074  142.3075  168.1873 C.1     1  UNL1        0.0753
@<TRIPOS>BOND
     1    37    38    3
     2    38    25    1
     3    25    31    1
     4    31    32   ar
     5    32    33   ar
     6    33    34   ar
     7    34    35   ar
     8    35    36   ar
     9    25    26    1
    10    26    27    1
    11    27    28    1
    12    28    24    1
    13    24     1    1
    14     1     2   ar
    15     2     3   ar
    16     3    12    1
    17    12    13    2
    18    12    14   am
    19    16    14    1
    20    16    17    1
    21    17    18    1
    22    18    19    1
    23    19    20    1
    24    20    21    1
    25    21    22    1
    26     3     4   ar
    27     4     5    2
    28     4     6   ar
    29     6     7   ar
    30     7     8   ar
    31     8     9   ar
    32     9    10   ar
    33    10    11   ar
    34    28    29    1
    35    29    30    1
    36    30    25    1
    37    36    31   ar
    38    11     1   ar
    39    21    16    1
    40    11     6   ar
    41    14    15    1
    42    22    23    1
@<TRIPOS>MOLECULE
*****
 38 42 0 0 0
SMALL
GASTEIGER

@<TRIPOS>ATOM
      1 C         139.8682  140.5865  162.3553 C.ar    1  UNL1        0.0104
      2 C         139.4973  141.7376  161.4680 C.ar    1  UNL1        0.0078
      3 C         140.4433  142.1944  160.3973 C.ar    1  UNL1        0.1095
      4 C         141.7602  141.5001  160.2139 C.ar    1  UNL1        0.2691
      5 O         142.7062  141.9569  159.1432 O.2     1  UNL1       -0.2665
      6 N         142.1312  140.3489  161.1012 N.ar    1  UNL1       -0.2733
      7 C         143.4481  139.6547  160.9178 C.ar    1  UNL1        0.0829
      8 C         143.8190  138.5036  161.8051 C.ar    1  UNL1        0.0191
      9 C         142.8730  138.0468  162.8758 C.ar    1  UNL1        0.0030
     10 C         141.5561  138.7410  163.0592 C.ar    1  UNL1        0.0174
     11 C         141.1852  139.8921  162.1719 C.ar    1  UNL1        0.0642
     12 C         140.0723  143.3456  159.5100 C.2     1  UNL1        0.2505
     13 O         139.5350  144.6114  160.1091 O.2     1  UNL1       -0.2700
     14 N         140.2387  143.2308  158.0237 N.am    1  UNL1       -0.3000
     15 H         140.5913  142.4000  157.6305 H       1  UNL1        0.1498
     16 C         139.8677  144.3820  157.1365 C.3     1  UNL1        0.0986
     17 C         138.7248  144.2492  156.1740 C.3     1  UNL1        0.0220
     18 C         138.3538  145.4003  155.2868 C.3     1  UNL1        0.0019
     19 C         139.1257  146.6842  155.3619 C.3     1  UNL1        0.0026
     20 C         140.2685  146.8171  156.3243 C.3     1  UNL1        0.0309
     21 C         140.6396  145.6659  157.2116 C.3     1  UNL1        0.1283
     22 O         141.7824  145.7988  158.1740 O.3     1  UNL1       -0.3828
     23 H         142.1699  146.6845  158.0955 H       1  UNL1        0.2104
     24 C         138.9222  140.1297  163.4260 C.3     1  UNL1        0.1006
     25 C         139.9726  140.7265  167.7608 C.3     1  UNL1        0.1007
     26 C         140.6799  141.5190  166.7017 C.3     1  UNL1        0.0356
     27 C         140.3298  141.3200  165.2568 C.3     1  UNL1        0.0738
     28 N         139.2723  140.3286  164.8709 N.3     1  UNL1       -0.2688
     29 C         138.5650  139.5362  165.9300 C.3     1  UNL1        0.0738
     30 C         138.9151  139.7351  167.3750 C.3     1  UNL1        0.0356
     31 C         140.8958  141.5409  168.6178 C.ar    1  UNL1       -0.0096
     32 C         140.4144  142.8224  169.2313 C.ar    1  UNL1       -0.0033
     33 C         141.3376  143.6368  170.0883 C.ar    1  UNL1       -0.0003
     34 C         142.7420  143.1699  170.3318 C.ar    1  UNL1       -0.0000
     35 C         143.2234  141.8884  169.7184 C.ar    1  UNL1       -0.0003
     36 C         142.3002  141.0740  168.8614 C.ar    1  UNL1       -0.0033
     37 N         139.1991  139.7073  170.4743 N.1     1  UNL1       -0.1956
     38 C         139.5858  140.2169  169.1175 C.1     1  UNL1        0.0753
@<TRIPOS>BOND
     1    37    38    3
     2    38    25    1
     3    25    31    1
     4    31    32   ar
     5    32    33   ar
     6    33    34   ar
     7    34    35   ar
     8    35    36   ar
     9    25    26    1
    10    26    27    1
    11    27    28    1
    12    28    24    1
    13    24     1    1
    14     1     2   ar
    15     2     3   ar
    16     3    12    1
    17    12    13    2
    18    12    14   am
    19    16    14    1
    20    16    17    1
    21    17    18    1
    22    18    19    1
    23    19    20    1
    24    20    21    1
    25    21    22    1
    26     3     4   ar
    27     4     5    2
    28     4     6   ar
    29     6     7   ar
    30     7     8   ar
    31     8     9   ar
    32     9    10   ar
    33    10    11   ar
    34    28    29    1
    35    29    30    1
    36    30    25    1
    37    36    31   ar
    38    11     1   ar
    39    21    16    1
    40    11     6   ar
    41    14    15    1
    42    22    23    1
@<TRIPOS>MOLECULE
*****
 38 42 0 0 0
SMALL
GASTEIGER

@<TRIPOS>ATOM
      1 C         140.6073  141.5273  161.8355 C.ar    1  UNL1        0.0104
      2 C         141.6631  141.1064  160.8567 C.ar    1  UNL1        0.0078
      3 C         142.3132  142.1266  159.9698 C.ar    1  UNL1        0.1095
      4 C         141.9075  143.5678  160.0618 C.ar    1  UNL1        0.2691
      5 O         142.5576  144.5880  159.1749 O.2     1  UNL1       -0.2665
      6 N         140.8517  143.9887  161.0406 N.ar    1  UNL1       -0.2733
      7 C         140.4460  145.4299  161.1326 C.ar    1  UNL1        0.0829
      8 C         139.3902  145.8508  162.1114 C.ar    1  UNL1        0.0191
      9 C         138.7401  144.8305  162.9983 C.ar    1  UNL1        0.0030
     10 C         139.1458  143.3894  162.9063 C.ar    1  UNL1        0.0174
     11 C         140.2016  142.9685  161.9275 C.ar    1  UNL1        0.0642
     12 C         143.3690  141.7057  158.9910 C.2     1  UNL1        0.2505
     13 O         144.2478  140.5288  159.2956 O.2     1  UNL1       -0.2700
     14 N         143.5460  142.4615  157.7075 N.am    1  UNL1       -0.3000
     15 H         142.9692  143.2339  157.5075 H       1  UNL1        0.1498
     16 C         144.6018  142.0405  156.7287 C.3     1  UNL1        0.0986
     17 C         144.2195  141.2777  155.4950 C.3     1  UNL1        0.0220
     18 C         145.2752  140.8567  154.5162 C.3     1  UNL1        0.0019
     19 C         146.7134  141.1985  154.7711 C.3     1  UNL1        0.0026
     20 C         147.0957  141.9613  156.0047 C.3     1  UNL1        0.0309
     21 C         146.0399  142.3823  156.9836 C.3     1  UNL1        0.1283
     22 O         146.4223  143.1450  158.2173 O.3     1  UNL1       -0.3828
     23 H         147.3826  143.2816  158.2284 H       1  UNL1        0.2104
     24 C         139.9572  140.5071  162.7224 C.3     1  UNL1        0.1006
     25 C         140.3221  140.8537  167.1941 C.3     1  UNL1        0.1007
     26 C         141.2978  141.5655  166.3046 C.3     1  UNL1        0.0356
     27 C         141.1762  141.4500  164.8140 C.3     1  UNL1        0.0738
     28 N         140.0788  140.6226  164.2129 N.3     1  UNL1       -0.2688
     29 C         139.1031  139.9108  165.1024 C.3     1  UNL1        0.0738
     30 C         139.2247  140.0263  166.5931 C.3     1  UNL1        0.0356
     31 C         141.1846  141.5134  168.2289 C.ar    1  UNL1       -0.0096
     32 C         140.7105  142.7592  168.9169 C.ar    1  UNL1       -0.0033
     33 C         141.5731  143.4189  169.9517 C.ar    1  UNL1       -0.0003
     34 C         142.9096  142.8329  170.2985 C.ar    1  UNL1       -0.0000
     35 C         143.3836  141.5871  169.6104 C.ar    1  UNL1       -0.0003
     36 C         142.5211  140.9274  168.5756 C.ar    1  UNL1       -0.0033
     37 N         138.9696  139.8883  169.6920 N.1     1  UNL1       -0.1956
     38 C         139.6459  140.3710  168.4430 C.1     1  UNL1        0.0753
@<TRIPOS>BOND
     1    37    38    3
     2    38    25    1
     3    25    31    1
     4    31    32   ar
     5    32    33   ar
     6    33    34   ar
     7    34    35   ar
     8    35    36   ar
     9    25    26    1
    10    26    27    1
    11    27    28    1
    12    28    24    1
    13    24     1    1
    14     1     2   ar
    15     2     3   ar
    16     3    12    1
    17    12    13    2
    18    12    14   am
    19    16    14    1
    20    16    17    1
    21    17    18    1
    22    18    19    1
    23    19    20    1
    24    20    21    1
    25    21    22    1
    26     3     4   ar
    27     4     5    2
    28     4     6   ar
    29     6     7   ar
    30     7     8   ar
    31     8     9   ar
    32     9    10   ar
    33    10    11   ar
    34    28    29    1
    35    29    30    1
    36    30    25    1
    37    36    31   ar
    38    11     1   ar
    39    21    16    1
    40    11     6   ar
    41    14    15    1
    42    22    23    1
@<TRIPOS>MOLECULE
*****
 38 42 0 0 0
SMALL
GASTEIGER

@<TRIPOS>ATOM
      1 C         136.5806  141.0738  156.2234 C.ar    1  UNL1        0.0104
      2 C         137.0673  140.5368  157.5366 C.ar    1  UNL1        0.0078
      3 C         137.9671  141.3699  158.4005 C.ar    1  UNL1        0.1095
      4 C         138.3802  142.7400  157.9511 C.ar    1  UNL1        0.2691
      5 O         139.2801  143.5731  158.8150 O.2     1  UNL1       -0.2665
      6 N         137.8936  143.2771  156.6378 N.ar    1  UNL1       -0.2733
      7 C         138.3068  144.6473  156.1884 C.ar    1  UNL1        0.0829
      8 C         137.8201  145.1843  154.8751 C.ar    1  UNL1        0.0191
      9 C         136.9203  144.3512  154.0112 C.ar    1  UNL1        0.0030
     10 C         136.5072  142.9811  154.4606 C.ar    1  UNL1        0.0174
     11 C         136.9938  142.4440  155.7739 C.ar    1  UNL1        0.0642
     12 C         138.4537  140.8328  159.7138 C.2     1  UNL1        0.2505
     13 O         139.8724  141.0674  160.1407 O.2     1  UNL1       -0.2700
     14 N         137.5216  140.0612  160.6003 N.am    1  UNL1       -0.3000
     15 H         136.5905  139.9072  160.3201 H       1  UNL1        0.1498
     16 C         138.0083  139.5241  161.9135 C.3     1  UNL1        0.0986
     17 C         138.8472  138.2811  161.9510 C.3     1  UNL1        0.0220
     18 C         139.3338  137.7440  163.2643 C.3     1  UNL1        0.0019
     19 C         138.9817  138.4499  164.5401 C.3     1  UNL1        0.0026
     20 C         138.1429  139.6929  164.5026 C.3     1  UNL1        0.0309
     21 C         137.6561  140.2300  163.1893 C.3     1  UNL1        0.1283
     22 O         136.8173  141.4729  163.1519 O.3     1  UNL1       -0.3828
     23 H         136.6839  141.8003  164.0552 H       1  UNL1        0.2104
     24 C         135.6808  140.2408  155.3595 C.3     1  UNL1        0.1006
     25 C         131.2852  139.9762  156.2861 C.3     1  UNL1        0.1007
     26 C         132.2105  138.8780  156.7194 C.3     1  UNL1        0.0356
     27 C         133.6756  138.9661  156.4105 C.3     1  UNL1        0.0738
     28 N         134.2156  140.1526  155.6683 N.3     1  UNL1       -0.2688
     29 C         133.2904  141.2509  155.2351 C.3     1  UNL1        0.0738
     30 C         131.8251  141.1627  155.5440 C.3     1  UNL1        0.0356
     31 C         130.3058  139.0608  156.9590 C.ar    1  UNL1       -0.0096
     32 C         129.6687  137.9448  156.1851 C.ar    1  UNL1       -0.0033
     33 C         128.6893  137.0294  156.8580 C.ar    1  UNL1       -0.0003
     34 C         128.3470  137.2298  158.3045 C.ar    1  UNL1       -0.0000
     35 C         128.9842  138.3458  159.0783 C.ar    1  UNL1       -0.0003
     36 C         129.9636  139.2613  158.4055 C.ar    1  UNL1       -0.0033
     37 N         128.7544  141.5369  155.8869 N.1     1  UNL1       -0.1956
     38 C         130.0199  140.7566  156.0865 C.1     1  UNL1        0.0753
@<TRIPOS>BOND
     1    37    38    3
     2    38    25    1
     3    25    31    1
     4    31    32   ar
     5    32    33   ar
     6    33    34   ar
     7    34    35   ar
     8    35    36   ar
     9    25    26    1
    10    26    27    1
    11    27    28    1
    12    28    24    1
    13    24     1    1
    14     1     2   ar
    15     2     3   ar
    16     3    12    1
    17    12    13    2
    18    12    14   am
    19    16    14    1
    20    16    17    1
    21    17    18    1
    22    18    19    1
    23    19    20    1
    24    20    21    1
    25    21    22    1
    26     3     4   ar
    27     4     5    2
    28     4     6   ar
    29     6     7   ar
    30     7     8   ar
    31     8     9   ar
    32     9    10   ar
    33    10    11   ar
    34    28    29    1
    35    29    30    1
    36    30    25    1
    37    36    31   ar
    38    11     1   ar
    39    21    16    1
    40    11     6   ar
    41    14    15    1
    42    22    23    1
@<TRIPOS>MOLECULE
*****
 38 42 0 0 0
SMALL
GASTEIGER

@<TRIPOS>ATOM
      1 C         141.7673  139.1533  158.0022 C.ar    1  UNL1        0.0104
      2 C         142.5689  137.9300  157.6693 C.ar    1  UNL1        0.0078
      3 C         142.1053  137.0014  156.5863 C.ar    1  UNL1        0.1095
      4 C         140.8403  137.2962  155.8363 C.ar    1  UNL1        0.2691
      5 O         140.3767  136.3676  154.7533 O.2     1  UNL1       -0.2665
      6 N         140.0386  138.5196  156.1692 N.ar    1  UNL1       -0.2733
      7 C         138.7736  138.8144  155.4191 C.ar    1  UNL1        0.0829
      8 C         137.9720  140.0377  155.7520 C.ar    1  UNL1        0.0191
      9 C         138.4356  140.9663  156.8350 C.ar    1  UNL1        0.0030
     10 C         139.7007  140.6715  157.5850 C.ar    1  UNL1        0.0174
     11 C         140.5022  139.4482  157.2521 C.ar    1  UNL1        0.0642
     12 C         142.9069  135.7780  156.2534 C.2     1  UNL1        0.2505
     13 O         144.3085  135.9171  155.7374 O.2     1  UNL1       -0.2700
     14 N         142.3070  134.4155  156.4366 N.am    1  UNL1       -0.3000
     15 H         141.3871  134.3241  156.7753 H       1  UNL1        0.1498
     16 C         143.1086  133.1921  156.1037 C.3     1  UNL1        0.0986
     17 C         142.8929  132.4866  154.7976 C.3     1  UNL1        0.0220
     18 C         143.6945  131.2633  154.4647 C.3     1  UNL1        0.0019
     19 C         144.7118  130.7454  155.4378 C.3     1  UNL1        0.0026
     20 C         144.9275  131.4509  156.7439 C.3     1  UNL1        0.0309
     21 C         144.1259  132.6743  157.0768 C.3     1  UNL1        0.1283
     22 O         144.3415  133.3797  158.3828 O.3     1  UNL1       -0.3828
     23 H         145.0283  132.9189  158.8897 H       1  UNL1        0.2104
     24 C         142.2309  140.0819  159.0852 C.3     1  UNL1        0.1006
     25 C         141.5530  139.0173  163.4046 C.3     1  UNL1        0.1007
     26 C         140.3947  139.4194  162.5405 C.3     1  UNL1        0.0356
     27 C         140.6206  139.7742  161.1008 C.3     1  UNL1        0.0738
     28 N         142.0049  139.7271  160.5250 N.3     1  UNL1       -0.2688
     29 C         143.1633  139.3250  161.3890 C.3     1  UNL1        0.0738
     30 C         142.9373  138.9702  162.8289 C.3     1  UNL1        0.0356
     31 C         140.4363  138.9122  164.4005 C.ar    1  UNL1       -0.0096
     32 C         140.0611  140.1010  165.2349 C.ar    1  UNL1       -0.0033
     33 C         138.9444  139.9958  166.2308 C.ar    1  UNL1       -0.0003
     34 C         138.2029  138.7020  166.3924 C.ar    1  UNL1       -0.0000
     35 C         138.5780  137.5133  165.5580 C.ar    1  UNL1       -0.0003
     36 C         139.6948  137.6184  164.5620 C.ar    1  UNL1       -0.0033
     37 N         143.0941  138.1403  165.8245 N.1     1  UNL1       -0.1956
     38 C         142.3235  138.5788  164.6145 C.1     1  UNL1        0.0753
@<TRIPOS>BOND
     1    37    38    3
     2    38    25    1
     3    25    31    1
     4    31    32   ar
     5    32    33   ar
     6    33    34   ar
     7    34    35   ar
     8    35    36   ar
     9    25    26    1
    10    26    27    1
    11    27    28    1
    12    28    24    1
    13    24     1    1
    14     1     2   ar
    15     2     3   ar
    16     3    12    1
    17    12    13    2
    18    12    14   am
    19    16    14    1
    20    16    17    1
    21    17    18    1
    22    18    19    1
    23    19    20    1
    24    20    21    1
    25    21    22    1
    26     3     4   ar
    27     4     5    2
    28     4     6   ar
    29     6     7   ar
    30     7     8   ar
    31     8     9   ar
    32     9    10   ar
    33    10    11   ar
    34    28    29    1
    35    29    30    1
    36    30    25    1
    37    36    31   ar
    38    11     1   ar
    39    21    16    1
    40    11     6   ar
    41    14    15    1
    42    22    23    1
@<TRIPOS>MOLECULE
*****
 38 42 0 0 0
SMALL
GASTEIGER

@<TRIPOS>ATOM
      1 C         140.0500  142.7162  161.4554 C.ar    1  UNL1        0.0104
      2 C         139.0178  142.2172  160.4883 C.ar    1  UNL1        0.0078
      3 C         139.4386  141.6847  159.1506 C.ar    1  UNL1        0.1095
      4 C         140.8916  141.6514  158.7800 C.ar    1  UNL1        0.2691
      5 O         141.3124  141.1189  157.4423 O.2     1  UNL1       -0.2665
      6 N         141.9240  142.1505  159.7471 N.ar    1  UNL1       -0.2733
      7 C         143.3771  142.1171  159.3764 C.ar    1  UNL1        0.0829
      8 C         144.4094  142.6162  160.3435 C.ar    1  UNL1        0.0191
      9 C         143.9886  143.1486  161.6812 C.ar    1  UNL1        0.0030
     10 C         142.5355  143.1820  162.0518 C.ar    1  UNL1        0.0174
     11 C         141.5032  142.6829  161.0848 C.ar    1  UNL1        0.0642
     12 C         138.4062  141.1856  158.1835 C.2     1  UNL1        0.2505
     13 O         137.3958  140.1681  158.6239 O.2     1  UNL1       -0.2700
     14 N         138.3842  141.7040  156.7762 N.am    1  UNL1       -0.3000
     15 H         139.0473  142.3719  156.4871 H       1  UNL1        0.1498
     16 C         137.3518  141.2049  155.8092 C.3     1  UNL1        0.0986
     17 C         137.4763  139.8300  155.2225 C.3     1  UNL1        0.0220
     18 C         136.4440  139.3309  154.2555 C.3     1  UNL1        0.0019
     19 C         135.2871  140.2067  153.8751 C.3     1  UNL1        0.0026
     20 C         135.1626  141.5816  154.4617 C.3     1  UNL1        0.0309
     21 C         136.1950  142.0807  155.4287 C.3     1  UNL1        0.1283
     22 O         136.0705  143.4556  156.0153 O.3     1  UNL1       -0.3828
     23 H         135.2731  143.8846  155.6675 H       1  UNL1        0.2104
     24 C         139.6292  143.2487  162.7931 C.3     1  UNL1        0.1006
     25 C         139.3813  140.4870  166.3373 C.3     1  UNL1        0.1007
     26 C         140.4703  141.5159  166.2629 C.3     1  UNL1        0.0356
     27 C         140.5530  142.4364  165.0815 C.3     1  UNL1        0.0738
     28 N         139.5466  142.3282  163.9745 N.3     1  UNL1       -0.2688
     29 C         138.4575  141.2993  164.0489 C.3     1  UNL1        0.0738
     30 C         138.3749  140.3788  165.2304 C.3     1  UNL1        0.0356
     31 C         140.0956  140.2039  167.6256 C.ar    1  UNL1       -0.0096
     32 C         141.4962  139.6672  167.6042 C.ar    1  UNL1       -0.0033
     33 C         142.2105  139.3840  168.8924 C.ar    1  UNL1       -0.0003
     34 C         141.5243  139.6375  170.2019 C.ar    1  UNL1       -0.0000
     35 C         140.1238  140.1742  170.2233 C.ar    1  UNL1       -0.0003
     36 C         139.4094  140.4573  168.9351 C.ar    1  UNL1       -0.0033
     37 N         137.6993  138.2327  167.3810 N.1     1  UNL1       -0.1956
     38 C         138.5403  139.3599  166.8591 C.1     1  UNL1        0.0753
@<TRIPOS>BOND
     1    37    38    3
     2    38    25    1
     3    25    31    1
     4    31    32   ar
     5    32    33   ar
     6    33    34   ar
     7    34    35   ar
     8    35    36   ar
     9    25    26    1
    10    26    27    1
    11    27    28    1
    12    28    24    1
    13    24     1    1
    14     1     2   ar
    15     2     3   ar
    16     3    12    1
    17    12    13    2
    18    12    14   am
    19    16    14    1
    20    16    17    1
    21    17    18    1
    22    18    19    1
    23    19    20    1
    24    20    21    1
    25    21    22    1
    26     3     4   ar
    27     4     5    2
    28     4     6   ar
    29     6     7   ar
    30     7     8   ar
    31     8     9   ar
    32     9    10   ar
    33    10    11   ar
    34    28    29    1
    35    29    30    1
    36    30    25    1
    37    36    31   ar
    38    11     1   ar
    39    21    16    1
    40    11     6   ar
    41    14    15    1
    42    22    23    1
@<TRIPOS>MOLECULE
*****
 38 42 0 0 0
SMALL
GASTEIGER

@<TRIPOS>ATOM
      1 C         141.4345  140.9762  161.8435 C.ar    1  UNL1        0.0104
      2 C         141.3336  142.1472  160.9117 C.ar    1  UNL1        0.0078
      3 C         140.1429  142.2881  160.0104 C.ar    1  UNL1        0.1095
      4 C         139.0531  141.2579  160.0409 C.ar    1  UNL1        0.2691
      5 O         137.8623  141.3987  159.1396 O.2     1  UNL1       -0.2665
      6 N         139.1540  140.0867  160.9729 N.ar    1  UNL1       -0.2733
      7 C         138.0642  139.0565  161.0034 C.ar    1  UNL1        0.0829
      8 C         138.1651  137.8855  161.9353 C.ar    1  UNL1        0.0191
      9 C         139.3558  137.7447  162.8366 C.ar    1  UNL1        0.0030
     10 C         140.4456  138.7749  162.8060 C.ar    1  UNL1        0.0174
     11 C         140.3447  139.9459  161.8742 C.ar    1  UNL1        0.0642
     12 C         140.0420  143.4592  159.0784 C.2     1  UNL1        0.2505
     13 O         139.8421  144.8403  159.6285 O.2     1  UNL1       -0.2700
     14 N         140.1409  143.2491  157.5966 N.am    1  UNL1       -0.3000
     15 H         140.2721  142.3426  157.2355 H       1  UNL1        0.1498
     16 C         140.0400  144.4202  156.6647 C.3     1  UNL1        0.0986
     17 C         138.7337  144.7396  156.0002 C.3     1  UNL1        0.0220
     18 C         138.6328  145.9107  155.0684 C.3     1  UNL1        0.0019
     19 C         139.8382  146.7624  154.8010 C.3     1  UNL1        0.0026
     20 C         141.1445  146.4431  155.4655 C.3     1  UNL1        0.0309
     21 C         141.2455  145.2720  156.3974 C.3     1  UNL1        0.1283
     22 O         142.5518  144.9526  157.0618 O.3     1  UNL1       -0.3828
     23 H         143.2221  145.5959  156.7829 H       1  UNL1        0.2104
     24 C         142.6252  140.8354  162.7448 C.3     1  UNL1        0.1006
     25 C         142.0551  140.5647  167.2004 C.3     1  UNL1        0.1007
     26 C         141.3599  141.6401  166.4192 C.3     1  UNL1        0.0356
     27 C         141.5499  141.7303  164.9341 C.3     1  UNL1        0.0738
     28 N         142.4352  140.7451  164.2300 N.3     1  UNL1       -0.2688
     29 C         143.1305  139.6697  165.0111 C.3     1  UNL1        0.0738
     30 C         142.9404  139.5795  166.4963 C.3     1  UNL1        0.0356
     31 C         141.3230  141.2603  168.3094 C.ar    1  UNL1       -0.0096
     32 C         140.0659  140.6627  168.8687 C.ar    1  UNL1       -0.0033
     33 C         139.3337  141.3583  169.9778 C.ar    1  UNL1       -0.0003
     34 C         139.8586  142.6514  170.5276 C.ar    1  UNL1       -0.0000
     35 C         141.1157  143.2489  169.9683 C.ar    1  UNL1       -0.0003
     36 C         141.8478  142.5534  168.8593 C.ar    1  UNL1       -0.0033
     37 N         142.9371  138.8970  169.5330 N.1     1  UNL1       -0.1956
     38 C         142.4961  139.7309  168.3666 C.1     1  UNL1        0.0753
@<TRIPOS>BOND
     1    37    38    3
     2    38    25    1
     3    25    31    1
     4    31    32   ar
     5    32    33   ar
     6    33    34   ar
     7    34    35   ar
     8    35    36   ar
     9    25    26    1
    10    26    27    1
    11    27    28    1
    12    28    24    1
    13    24     1    1
    14     1     2   ar
    15     2     3   ar
    16     3    12    1
    17    12    13    2
    18    12    14   am
    19    16    14    1
    20    16    17    1
    21    17    18    1
    22    18    19    1
    23    19    20    1
    24    20    21    1
    25    21    22    1
    26     3     4   ar
    27     4     5    2
    28     4     6   ar
    29     6     7   ar
    30     7     8   ar
    31     8     9   ar
    32     9    10   ar
    33    10    11   ar
    34    28    29    1
    35    29    30    1
    36    30    25    1
    37    36    31   ar
    38    11     1   ar
    39    21    16    1
    40    11     6   ar
    41    14    15    1
    42    22    23    1
