@<TRIPOS>MOLECULE
*****
 38 41 0 0 0
SMALL
GASTEIGER

@<TRIPOS>ATOM
      1 N         140.0323  138.8485  162.9440 N.3     1  UNL1       -0.2711
      2 C         141.0482  139.3978  161.9869 C.3     1  UNL1        0.0933
      3 C         140.5076  138.5113  160.9043 C.3     1  UNL1        0.1035
      4 C         139.4917  137.9620  161.8615 C.3     1  UNL1        0.0933
      5 C         139.0239  139.5638  167.2709 C.3     1  UNL1        0.1140
      6 O         138.0805  139.0706  168.3276 O.3     1  UNL1       -0.3821
      7 C         140.1162  140.3552  166.6146 C.3     1  UNL1        0.0331
      8 C         140.4523  140.1167  165.1724 C.3     1  UNL1        0.0187
      9 C         139.6961  139.0869  164.3864 C.3     1  UNL1        0.0578
     10 C         138.6039  138.2956  165.0426 C.3     1  UNL1        0.0187
     11 C         138.2678  138.5340  166.4849 C.3     1  UNL1        0.0331
     12 H         138.2438  139.5488  169.1555 H       1  UNL1        0.2107
     13 C         140.5650  142.1294  169.7425 C.ar    1  UNL1        0.0880
     14 N         139.6582  141.3571  170.6542 N.ar    1  UNL1       -0.2414
     15 C         138.9705  140.3021  169.8393 C.ar    1  UNL1        0.1034
     16 C         139.4524  140.4223  168.4239 C.ar    1  UNL1        0.0514
     17 S         140.4378  141.5516  168.3640 S.2     1  UNL1       -0.0728
     18 C         142.9054  143.0508  170.3933 C.3     1  UNL1        0.0073
     19 C         141.4446  143.2778  170.1394 C.3     1  UNL1        0.0526
     20 N         140.8437  138.2729  159.4621 N.am    1  UNL1       -0.3018
     21 C         139.9190  138.7599  158.3860 C.2     1  UNL1        0.2426
     22 O         138.6582  139.4852  158.7523 O.2     1  UNL1       -0.2733
     23 H         141.6712  137.7968  159.2217 H       1  UNL1        0.1495
     24 C         140.2551  138.5214  156.9438 C.3     1  UNL1        0.1759
     25 N         140.6976  137.1614  156.4918 N.am    1  UNL1       -0.2931
     26 C         142.1191  136.7284  156.6972 C.2     1  UNL1        0.2462
     27 O         143.0979  137.6556  157.3546 O.2     1  UNL1       -0.2701
     28 H         140.0552  136.5528  156.0603 H       1  UNL1        0.1502
     29 C         142.5616  135.3684  156.2452 C.ar    1  UNL1        0.0533
     30 C         142.0382  134.7978  154.9605 C.ar    1  UNL1        0.0045
     31 C         142.4808  133.4377  154.5085 C.ar    1  UNL1        0.0001
     32 C         143.4468  132.6482  155.3413 C.ar    1  UNL1        0.0039
     33 C         143.9702  133.2187  156.6260 C.ar    1  UNL1        0.0716
     34 C         143.5277  134.5788  157.0780 C.ar    1  UNL1        0.0084
     35 C         144.9362  132.4292  157.4587 C.3     1  UNL1        0.4186
     36 F         145.9022  131.6396  158.2915 F       1  UNL1       -0.1659
     37 F         144.7002  133.3579  158.6128 F       1  UNL1       -0.1659
     38 F         145.1721  131.5005  156.3046 F       1  UNL1       -0.1659
@<TRIPOS>BOND
     1    18    19    1
     2    19    13    1
     3    13    14   ar
     4    14    15   ar
     5    15    16   ar
     6    16     5    1
     7     5     6    1
     8     5     7    1
     9     7     8    1
    10     8     9    1
    11     9     1    1
    12     1     2    1
    13     2     3    1
    14     3    20    1
    15    20    21   am
    16    21    22    2
    17    21    24    1
    18    24    25    1
    19    25    26   am
    20    26    27    2
    21    26    29    1
    22    29    30   ar
    23    30    31   ar
    24    31    32   ar
    25    32    33   ar
    26    33    35    1
    27    35    36    1
    28    35    37    1
    29    35    38    1
    30    33    34   ar
    31     3     4    1
    32     9    10    1
    33    10    11    1
    34    16    17   ar
    35    17    13   ar
    36    11     5    1
    37     4     1    1
    38    34    29   ar
    39     6    12    1
    40    20    23    1
    41    25    28    1
@<TRIPOS>MOLECULE
*****
 38 41 0 0 0
SMALL
GASTEIGER

@<TRIPOS>ATOM
      1 N         141.7866  138.8933  163.3562 N.3     1  UNL1       -0.2711
      2 C         141.5722  139.7834  162.1680 C.3     1  UNL1        0.0933
      3 C         141.6199  138.5876  161.2636 C.3     1  UNL1        0.1035
      4 C         141.8344  137.6975  162.4518 C.3     1  UNL1        0.0933
      5 C         142.1402  139.5417  167.7951 C.3     1  UNL1        0.1140
      6 O         143.0436  139.1892  168.9395 O.3     1  UNL1       -0.3821
      7 C         140.9858  140.1317  167.0406 C.3     1  UNL1        0.0331
      8 C         140.8680  139.9156  165.5610 C.3     1  UNL1        0.0187
      9 C         141.9045  139.1094  164.8359 C.3     1  UNL1        0.0578
     10 C         143.0589  138.5195  165.5904 C.3     1  UNL1        0.0187
     11 C         143.1767  138.7356  167.0700 C.3     1  UNL1        0.0331
     12 H         142.6937  139.5743  169.7581 H       1  UNL1        0.2107
     13 C         140.3083  141.9187  170.2568 C.ar    1  UNL1        0.0880
     14 N         140.3022  140.6359  171.0340 N.ar    1  UNL1       -0.2414
     15 C         140.9877  139.5893  170.2064 C.ar    1  UNL1        0.1034
     16 C         141.4175  140.2254  168.9177 C.ar    1  UNL1        0.0514
     17 S         140.9976  141.6651  168.9489 S.2     1  UNL1       -0.0728
     18 C         140.2100  144.5104  170.1023 C.3     1  UNL1        0.0073
     19 C         139.7272  143.2259  170.7082 C.3     1  UNL1        0.0526
     20 N         141.5020  138.3714  159.7840 N.am    1  UNL1       -0.3018
     21 C         142.7162  138.4843  158.9104 C.2     1  UNL1        0.2426
     22 O         144.0483  138.8134  159.5165 O.2     1  UNL1       -0.2733
     23 H         140.6278  138.1554  159.3862 H       1  UNL1        0.1495
     24 C         142.5984  138.2682  157.4308 C.3     1  UNL1        0.1759
     25 N         142.4403  136.8796  156.8860 N.am    1  UNL1       -0.2931
     26 C         143.4948  136.3011  155.9896 C.2     1  UNL1        0.2462
     27 O         144.7073  137.1111  155.6381 O.2     1  UNL1       -0.2701
     28 H         141.6445  136.3479  157.1167 H       1  UNL1        0.1502
     29 C         143.3367  134.9125  155.4448 C.ar    1  UNL1        0.0533
     30 C         142.6174  134.6934  154.1469 C.ar    1  UNL1        0.0045
     31 C         142.4593  133.3048  153.6021 C.ar    1  UNL1        0.0001
     32 C         143.0206  132.1353  154.3552 C.ar    1  UNL1        0.0039
     33 C         143.7399  132.3543  155.6531 C.ar    1  UNL1        0.0716
     34 C         143.8980  133.7429  156.1979 C.ar    1  UNL1        0.0084
     35 C         144.3012  131.1849  156.4062 C.3     1  UNL1        0.4186
     36 F         144.8625  130.0153  157.1594 F       1  UNL1       -0.1659
     37 F         145.6475  131.8459  156.4292 F       1  UNL1       -0.1659
     38 F         142.9549  130.5239  156.3832 F       1  UNL1       -0.1659
@<TRIPOS>BOND
     1    18    19    1
     2    19    13    1
     3    13    14   ar
     4    14    15   ar
     5    15    16   ar
     6    16     5    1
     7     5     6    1
     8     5     7    1
     9     7     8    1
    10     8     9    1
    11     9     1    1
    12     1     2    1
    13     2     3    1
    14     3    20    1
    15    20    21   am
    16    21    22    2
    17    21    24    1
    18    24    25    1
    19    25    26   am
    20    26    27    2
    21    26    29    1
    22    29    30   ar
    23    30    31   ar
    24    31    32   ar
    25    32    33   ar
    26    33    35    1
    27    35    36    1
    28    35    37    1
    29    35    38    1
    30    33    34   ar
    31     3     4    1
    32     9    10    1
    33    10    11    1
    34    16    17   ar
    35    17    13   ar
    36    11     5    1
    37     4     1    1
    38    34    29   ar
    39     6    12    1
    40    20    23    1
    41    25    28    1
@<TRIPOS>MOLECULE
*****
 38 41 0 0 0
SMALL
GASTEIGER

@<TRIPOS>ATOM
      1 N         140.3289  138.9433  162.9011 N.3     1  UNL1       -0.2711
      2 C         139.8497  139.5127  161.5988 C.3     1  UNL1        0.0933
      3 C         140.8549  138.6769  160.8634 C.3     1  UNL1        0.1035
      4 C         141.3342  138.1075  162.1657 C.3     1  UNL1        0.0933
      5 C         139.2133  139.5084  167.2238 C.3     1  UNL1        0.1140
      6 O         138.1488  139.1003  168.1986 O.3     1  UNL1       -0.3821
      7 C         140.4496  140.1585  166.6772 C.3     1  UNL1        0.0331
      8 C         140.8215  139.9702  165.2363 C.3     1  UNL1        0.0187
      9 C         139.9570  139.1317  164.3421 C.3     1  UNL1        0.0578
     10 C         138.7207  138.4816  164.8887 C.3     1  UNL1        0.0187
     11 C         138.3489  138.6699  166.3296 C.3     1  UNL1        0.0331
     12 H         138.3401  139.4875  169.0672 H       1  UNL1        0.2107
     13 C         141.1131  141.4380  170.0047 C.ar    1  UNL1        0.0880
     14 N         139.8252  141.1165  170.7031 N.ar    1  UNL1       -0.2414
     15 C         138.9568  140.3546  169.7464 C.ar    1  UNL1        0.1034
     16 C         139.7080  140.2051  168.4566 C.ar    1  UNL1        0.0514
     17 S         141.0408  140.8748  168.6163 S.2     1  UNL1       -0.0728
     18 C         143.5496  142.3207  169.8192 C.3     1  UNL1        0.0073
     19 C         142.2704  142.1906  170.5916 C.3     1  UNL1        0.0526
     20 N         141.2269  138.4885  159.4225 N.am    1  UNL1       -0.3018
     21 C         142.5376  139.0094  158.9119 C.2     1  UNL1        0.2426
     22 O         143.4764  139.7187  159.8423 O.2     1  UNL1       -0.2733
     23 H         140.6107  138.0230  158.8119 H       1  UNL1        0.1495
     24 C         142.9095  138.8211  157.4711 C.3     1  UNL1        0.1759
     25 N         143.2783  137.4585  156.9637 N.am    1  UNL1       -0.2931
     26 C         142.2041  136.4920  156.5612 C.2     1  UNL1        0.2462
     27 O         140.7611  136.8880  156.6662 O.2     1  UNL1       -0.2701
     28 H         144.2254  137.1986  156.8948 H       1  UNL1        0.1502
     29 C         142.5729  135.1295  156.0538 C.ar    1  UNL1        0.0533
     30 C         143.7130  134.3802  156.6772 C.ar    1  UNL1        0.0045
     31 C         144.0818  133.0176  156.1698 C.ar    1  UNL1        0.0001
     32 C         143.3104  132.4043  155.0390 C.ar    1  UNL1        0.0039
     33 C         142.1702  133.1536  154.4156 C.ar    1  UNL1        0.0716
     34 C         141.8014  134.5161  154.9230 C.ar    1  UNL1        0.0084
     35 C         141.3988  132.5403  153.2848 C.3     1  UNL1        0.4186
     36 F         140.6273  131.9269  152.1539 F       1  UNL1       -0.1659
     37 F         142.1091  131.2378  153.5067 F       1  UNL1       -0.1659
     38 F         140.6885  133.8427  153.0629 F       1  UNL1       -0.1659
@<TRIPOS>BOND
     1    18    19    1
     2    19    13    1
     3    13    14   ar
     4    14    15   ar
     5    15    16   ar
     6    16     5    1
     7     5     6    1
     8     5     7    1
     9     7     8    1
    10     8     9    1
    11     9     1    1
    12     1     2    1
    13     2     3    1
    14     3    20    1
    15    20    21   am
    16    21    22    2
    17    21    24    1
    18    24    25    1
    19    25    26   am
    20    26    27    2
    21    26    29    1
    22    29    30   ar
    23    30    31   ar
    24    31    32   ar
    25    32    33   ar
    26    33    35    1
    27    35    36    1
    28    35    37    1
    29    35    38    1
    30    33    34   ar
    31     3     4    1
    32     9    10    1
    33    10    11    1
    34    16    17   ar
    35    17    13   ar
    36    11     5    1
    37     4     1    1
    38    34    29   ar
    39     6    12    1
    40    20    23    1
    41    25    28    1
@<TRIPOS>MOLECULE
*****
 38 41 0 0 0
SMALL
GASTEIGER

@<TRIPOS>ATOM
      1 N         140.0315  142.0960  161.0348 N.3     1  UNL1       -0.2711
      2 C         138.5694  142.2925  160.7636 C.3     1  UNL1        0.0933
      3 C         138.8505  142.3521  159.2914 C.3     1  UNL1        0.1035
      4 C         140.3126  142.1556  159.5626 C.3     1  UNL1        0.0933
      5 C         142.5369  141.5524  164.7332 C.3     1  UNL1        0.1140
      6 O         143.6270  142.2464  165.4948 O.3     1  UNL1       -0.3821
      7 C         141.5126  140.5211  164.3630 C.3     1  UNL1        0.0331
      8 C         140.6775  140.7023  163.1302 C.3     1  UNL1        0.0187
      9 C         140.8667  141.9148  162.2677 C.3     1  UNL1        0.0578
     10 C         141.8910  142.9461  162.6378 C.3     1  UNL1        0.0187
     11 C         142.7261  142.7650  163.8706 C.3     1  UNL1        0.0331
     12 H         143.8621  141.7199  166.2748 H       1  UNL1        0.2107
     13 C         142.6728  139.5605  168.0617 C.ar    1  UNL1        0.0880
     14 N         143.3630  138.6114  167.1275 N.ar    1  UNL1       -0.2414
     15 C         143.3961  139.2420  165.7670 C.ar    1  UNL1        0.1034
     16 C         142.7263  140.5810  165.8603 C.ar    1  UNL1        0.0514
     17 S         142.2793  140.7778  167.2785 S.2     1  UNL1       -0.0728
     18 C         141.0839  139.6694  170.1144 C.3     1  UNL1        0.0073
     19 C         142.4204  139.3324  169.5227 C.3     1  UNL1        0.0526
     20 N         138.0154  142.5333  158.0586 N.am    1  UNL1       -0.3018
     21 C         137.5818  141.3372  157.2640 C.2     1  UNL1        0.2426
     22 O         137.9834  139.9599  157.7022 O.2     1  UNL1       -0.2733
     23 H         137.7519  143.4372  157.7710 H       1  UNL1        0.1495
     24 C         136.7467  141.5183  156.0312 C.3     1  UNL1        0.1759
     25 N         135.2512  141.5625  156.1383 N.am    1  UNL1       -0.2931
     26 C         134.4433  140.3272  155.8709 C.2     1  UNL1        0.2462
     27 O         135.1309  139.0478  155.4965 O.2     1  UNL1       -0.2701
     28 H         134.8000  142.4023  156.3840 H       1  UNL1        0.1502
     29 C         132.9478  140.3715  155.9780 C.ar    1  UNL1        0.0533
     30 C         132.1825  141.4890  155.3335 C.ar    1  UNL1        0.0045
     31 C         130.6869  141.5332  155.4406 C.ar    1  UNL1        0.0001
     32 C         129.9567  140.4599  156.1921 C.ar    1  UNL1        0.0039
     33 C         130.7221  139.3423  156.8366 C.ar    1  UNL1        0.0716
     34 C         132.2176  139.2981  156.7295 C.ar    1  UNL1        0.0084
     35 C         129.9920  138.2690  157.5881 C.3     1  UNL1        0.4186
     36 F         129.2618  137.1956  158.3396 F       1  UNL1       -0.1659
     37 F         130.2503  137.3076  156.4659 F       1  UNL1       -0.1659
     38 F         129.7337  139.2303  158.7101 F       1  UNL1       -0.1659
@<TRIPOS>BOND
     1    18    19    1
     2    19    13    1
     3    13    14   ar
     4    14    15   ar
     5    15    16   ar
     6    16     5    1
     7     5     6    1
     8     5     7    1
     9     7     8    1
    10     8     9    1
    11     9     1    1
    12     1     2    1
    13     2     3    1
    14     3    20    1
    15    20    21   am
    16    21    22    2
    17    21    24    1
    18    24    25    1
    19    25    26   am
    20    26    27    2
    21    26    29    1
    22    29    30   ar
    23    30    31   ar
    24    31    32   ar
    25    32    33   ar
    26    33    35    1
    27    35    36    1
    28    35    37    1
    29    35    38    1
    30    33    34   ar
    31     3     4    1
    32     9    10    1
    33    10    11    1
    34    16    17   ar
    35    17    13   ar
    36    11     5    1
    37     4     1    1
    38    34    29   ar
    39     6    12    1
    40    20    23    1
    41    25    28    1
@<TRIPOS>MOLECULE
*****
 38 41 0 0 0
SMALL
GASTEIGER

@<TRIPOS>ATOM
      1 N         143.2069  139.9890  162.4100 N.3     1  UNL1       -0.2711
      2 C         144.2262  139.3019  161.5503 C.3     1  UNL1        0.0933
      3 C         143.1955  139.1167  160.4763 C.3     1  UNL1        0.1035
      4 C         142.1763  139.8038  161.3360 C.3     1  UNL1        0.0933
      5 C         143.2310  141.8395  166.5118 C.3     1  UNL1        0.1140
      6 O         143.7933  143.0287  167.2326 O.3     1  UNL1       -0.3821
      7 C         142.4777  140.5655  166.2682 C.3     1  UNL1        0.0331
      8 C         142.4697  139.9487  164.9010 C.3     1  UNL1        0.0187
      9 C         143.2150  140.6059  163.7773 C.3     1  UNL1        0.0578
     10 C         143.9683  141.8799  164.0209 C.3     1  UNL1        0.0187
     11 C         143.9763  142.4967  165.3882 C.3     1  UNL1        0.0331
     12 H         143.5135  143.0061  168.1611 H       1  UNL1        0.2107
     13 C         141.2703  140.8246  169.7042 C.ar    1  UNL1        0.0880
     14 N         142.3993  141.6149  170.2964 N.ar    1  UNL1       -0.2414
     15 C         143.2712  142.0912  169.1726 C.ar    1  UNL1        0.1034
     16 C         142.6810  141.5953  167.8858 C.ar    1  UNL1        0.0514
     17 S         141.4444  140.8125  168.2144 S.2     1  UNL1       -0.0728
     18 C         138.7476  140.2673  169.9788 C.3     1  UNL1        0.0073
     19 C         140.1618  140.1625  170.4677 C.3     1  UNL1        0.0526
     20 N         143.1874  138.4999  159.1091 N.am    1  UNL1       -0.3018
     21 C         143.3463  139.3659  157.8946 C.2     1  UNL1        0.2426
     22 O         143.5132  140.8487  158.0475 O.2     1  UNL1       -0.2733
     23 H         143.0778  137.5267  159.0088 H       1  UNL1        0.1495
     24 C         143.3382  138.7491  156.5274 C.3     1  UNL1        0.1759
     25 N         143.5039  137.2664  156.3725 N.am    1  UNL1       -0.2931
     26 C         142.3109  136.3632  156.4781 C.2     1  UNL1        0.2462
     27 O         140.9521  136.9429  156.7386 O.2     1  UNL1       -0.2701
     28 H         144.3957  136.8859  156.2016 H       1  UNL1        0.1502
     29 C         142.4766  134.8805  156.3233 C.ar    1  UNL1        0.0533
     30 C         141.5791  134.1185  155.3939 C.ar    1  UNL1        0.0045
     31 C         141.7449  132.6357  155.2391 C.ar    1  UNL1        0.0001
     32 C         142.8081  131.9150  156.0137 C.ar    1  UNL1        0.0039
     33 C         143.7055  132.6770  156.9432 C.ar    1  UNL1        0.0716
     34 C         143.5398  134.1597  157.0980 C.ar    1  UNL1        0.0084
     35 C         144.7687  131.9563  157.7178 C.3     1  UNL1        0.4186
     36 F         145.8320  131.2355  158.4925 F       1  UNL1       -0.1659
     37 F         145.0738  133.2167  158.4717 F       1  UNL1       -0.1659
     38 F         144.4637  130.6959  156.9639 F       1  UNL1       -0.1659
@<TRIPOS>BOND
     1    18    19    1
     2    19    13    1
     3    13    14   ar
     4    14    15   ar
     5    15    16   ar
     6    16     5    1
     7     5     6    1
     8     5     7    1
     9     7     8    1
    10     8     9    1
    11     9     1    1
    12     1     2    1
    13     2     3    1
    14     3    20    1
    15    20    21   am
    16    21    22    2
    17    21    24    1
    18    24    25    1
    19    25    26   am
    20    26    27    2
    21    26    29    1
    22    29    30   ar
    23    30    31   ar
    24    31    32   ar
    25    32    33   ar
    26    33    35    1
    27    35    36    1
    28    35    37    1
    29    35    38    1
    30    33    34   ar
    31     3     4    1
    32     9    10    1
    33    10    11    1
    34    16    17   ar
    35    17    13   ar
    36    11     5    1
    37     4     1    1
    38    34    29   ar
    39     6    12    1
    40    20    23    1
    41    25    28    1
@<TRIPOS>MOLECULE
*****
 38 41 0 0 0
SMALL
GASTEIGER

@<TRIPOS>ATOM
      1 N         142.9354  139.1993  161.3082 N.3     1  UNL1       -0.2711
      2 C         142.8028  137.7817  160.8363 C.3     1  UNL1        0.0933
      3 C         142.8734  138.2490  159.4127 C.3     1  UNL1        0.1035
      4 C         143.0060  139.6666  159.8846 C.3     1  UNL1        0.0933
      5 C         143.0668  141.2154  165.3292 C.3     1  UNL1        0.1140
      6 O         143.7690  142.3422  166.0272 O.3     1  UNL1       -0.3821
      7 C         142.1441  140.0548  165.1019 C.3     1  UNL1        0.0331
      8 C         142.1003  139.3828  163.7616 C.3     1  UNL1        0.0187
      9 C         142.9792  139.8714  162.6486 C.3     1  UNL1        0.0578
     10 C         143.9019  141.0320  162.8758 C.3     1  UNL1        0.0187
     11 C         143.9457  141.7040  164.2161 C.3     1  UNL1        0.0331
     12 H         143.4517  142.4038  166.9417 H       1  UNL1        0.2107
     13 C         141.1588  141.6519  168.6810 C.ar    1  UNL1        0.0880
     14 N         141.7506  140.2853  168.8602 N.ar    1  UNL1       -0.2414
     15 C         142.5374  139.9555  167.6264 C.ar    1  UNL1        0.1034
     16 C         142.4318  141.1183  166.6846 C.ar    1  UNL1        0.0514
     17 S         141.5798  142.1667  167.3364 S.2     1  UNL1       -0.0728
     18 C         140.4392  143.8597  169.8463 C.3     1  UNL1        0.0073
     19 C         140.2973  142.3765  169.6723 C.3     1  UNL1        0.0526
     20 N         142.8296  137.5770  158.0724 N.am    1  UNL1       -0.3018
     21 C         141.5320  137.4745  157.3268 C.2     1  UNL1        0.2426
     22 O         140.2782  138.0440  157.9216 O.2     1  UNL1       -0.2733
     23 H         143.6525  137.2032  157.6820 H       1  UNL1        0.1495
     24 C         141.4881  136.8025  155.9865 C.3     1  UNL1        0.1759
     25 N         141.3942  135.3080  155.8996 N.am    1  UNL1       -0.2931
     26 C         142.5995  134.4627  156.1874 C.2     1  UNL1        0.2462
     27 O         143.8987  135.1120  156.5621 O.2     1  UNL1       -0.2701
     28 H         140.5414  134.8818  155.6537 H       1  UNL1        0.1502
     29 C         142.5055  132.9682  156.1005 C.ar    1  UNL1        0.0533
     30 C         141.5944  132.3313  155.0935 C.ar    1  UNL1        0.0045
     31 C         141.5005  130.8367  155.0066 C.ar    1  UNL1        0.0001
     32 C         142.3177  129.9791  155.9267 C.ar    1  UNL1        0.0039
     33 C         143.2288  130.6160  156.9338 C.ar    1  UNL1        0.0716
     34 C         143.3228  132.1105  157.0207 C.ar    1  UNL1        0.0084
     35 C         144.0460  129.7584  157.8539 C.3     1  UNL1        0.4186
     36 F         144.8632  128.9008  158.7741 F       1  UNL1       -0.1659
     37 F         144.8674  130.9534  158.2381 F       1  UNL1       -0.1659
     38 F         143.2246  128.5636  157.4697 F       1  UNL1       -0.1659
@<TRIPOS>BOND
     1    18    19    1
     2    19    13    1
     3    13    14   ar
     4    14    15   ar
     5    15    16   ar
     6    16     5    1
     7     5     6    1
     8     5     7    1
     9     7     8    1
    10     8     9    1
    11     9     1    1
    12     1     2    1
    13     2     3    1
    14     3    20    1
    15    20    21   am
    16    21    22    2
    17    21    24    1
    18    24    25    1
    19    25    26   am
    20    26    27    2
    21    26    29    1
    22    29    30   ar
    23    30    31   ar
    24    31    32   ar
    25    32    33   ar
    26    33    35    1
    27    35    36    1
    28    35    37    1
    29    35    38    1
    30    33    34   ar
    31     3     4    1
    32     9    10    1
    33    10    11    1
    34    16    17   ar
    35    17    13   ar
    36    11     5    1
    37     4     1    1
    38    34    29   ar
    39     6    12    1
    40    20    23    1
    41    25    28    1
@<TRIPOS>MOLECULE
*****
 38 41 0 0 0
SMALL
GASTEIGER

@<TRIPOS>ATOM
      1 N         140.5816  143.2602  158.9180 N.3     1  UNL1       -0.2711
      2 C         140.4007  143.1361  160.4018 C.3     1  UNL1        0.0933
      3 C         141.2935  141.9308  160.4098 C.3     1  UNL1        0.1035
      4 C         141.4744  142.0549  158.9260 C.3     1  UNL1        0.0933
      5 C         139.0714  146.0804  155.7531 C.3     1  UNL1        0.1140
      6 O         138.1660  146.0870  154.5573 O.3     1  UNL1       -0.3821
      7 C         140.0235  146.5716  156.8029 C.3     1  UNL1        0.0331
      8 C         140.5269  145.6316  157.8578 C.3     1  UNL1        0.0187
      9 C         140.0782  144.2003  157.8630 C.3     1  UNL1        0.0578
     10 C         139.1261  143.7090  156.8132 C.3     1  UNL1        0.0187
     11 C         138.6227  144.6491  155.7582 C.3     1  UNL1        0.0331
     12 H         138.1512  146.9752  154.1678 H       1  UNL1        0.2107
     13 C         138.9853  149.9300  155.2651 C.ar    1  UNL1        0.0880
     14 N         139.8393  149.5099  154.1058 N.ar    1  UNL1       -0.2414
     15 C         139.9756  148.0167  154.1475 C.ar    1  UNL1        0.1034
     16 C         139.2057  147.5139  155.3326 C.ar    1  UNL1        0.0514
     17 S         138.5936  148.6965  156.0233 S.2     1  UNL1       -0.0728
     18 C         138.5897  152.3940  154.5422 C.3     1  UNL1        0.0073
     19 C         138.5919  151.3368  155.6063 C.3     1  UNL1        0.0526
     20 N         141.7969  140.9907  161.4647 N.am    1  UNL1       -0.3018
     21 C         141.3705  139.5526  161.4532 C.2     1  UNL1        0.2426
     22 O         140.4406  139.0546  160.3868 O.2     1  UNL1       -0.2733
     23 H         142.4072  141.3176  162.1647 H       1  UNL1        0.1495
     24 C         141.8739  138.6126  162.5081 C.3     1  UNL1        0.1759
     25 N         141.3407  138.7006  163.9074 N.am    1  UNL1       -0.2931
     26 C         141.8821  139.7316  164.8529 C.2     1  UNL1        0.2462
     27 O         142.9568  140.6746  164.3990 O.2     1  UNL1       -0.2701
     28 H         140.6353  138.0817  164.2052 H       1  UNL1        0.1502
     29 C         141.3489  139.8197  166.2521 C.ar    1  UNL1        0.0533
     30 C         139.8816  140.0277  166.4839 C.ar    1  UNL1        0.0045
     31 C         139.3485  140.1157  167.8832 C.ar    1  UNL1        0.0001
     32 C         140.2826  139.9957  169.0507 C.ar    1  UNL1        0.0039
     33 C         141.7499  139.7877  168.8189 C.ar    1  UNL1        0.0716
     34 C         142.2831  139.6996  167.4196 C.ar    1  UNL1        0.0084
     35 C         142.6840  139.6677  169.9863 C.3     1  UNL1        0.4186
     36 F         143.6182  139.5476  171.1538 F       1  UNL1       -0.1659
     37 F         142.7905  138.1903  169.7492 F       1  UNL1       -0.1659
     38 F         142.5775  141.1449  170.2234 F       1  UNL1       -0.1659
@<TRIPOS>BOND
     1    18    19    1
     2    19    13    1
     3    13    14   ar
     4    14    15   ar
     5    15    16   ar
     6    16     5    1
     7     5     6    1
     8     5     7    1
     9     7     8    1
    10     8     9    1
    11     9     1    1
    12     1     2    1
    13     2     3    1
    14     3    20    1
    15    20    21   am
    16    21    22    2
    17    21    24    1
    18    24    25    1
    19    25    26   am
    20    26    27    2
    21    26    29    1
    22    29    30   ar
    23    30    31   ar
    24    31    32   ar
    25    32    33   ar
    26    33    35    1
    27    35    36    1
    28    35    37    1
    29    35    38    1
    30    33    34   ar
    31     3     4    1
    32     9    10    1
    33    10    11    1
    34    16    17   ar
    35    17    13   ar
    36    11     5    1
    37     4     1    1
    38    34    29   ar
    39     6    12    1
    40    20    23    1
    41    25    28    1
@<TRIPOS>MOLECULE
*****
 38 41 0 0 0
SMALL
GASTEIGER

@<TRIPOS>ATOM
      1 N         141.5424  138.7106  160.7188 N.3     1  UNL1       -0.2711
      2 C         142.7502  137.9190  160.3131 C.3     1  UNL1        0.0933
      3 C         142.2099  137.8095  158.9181 C.3     1  UNL1        0.1035
      4 C         141.0020  138.6011  159.3238 C.3     1  UNL1        0.0933
      5 C         140.1262  140.6220  164.5386 C.3     1  UNL1        0.1140
      6 O         139.8975  141.9829  165.1265 O.3     1  UNL1       -0.3821
      7 C         140.1832  139.1275  164.4241 C.3     1  UNL1        0.0331
      8 C         140.6552  138.4904  163.1508 C.3     1  UNL1        0.0187
      9 C         141.0703  139.3478  161.9921 C.3     1  UNL1        0.0578
     10 C         141.0133  140.8423  162.1066 C.3     1  UNL1        0.0187
     11 C         140.5412  141.4794  163.3799 C.3     1  UNL1        0.0331
     12 H         139.5666  141.8917  166.0337 H       1  UNL1        0.2107
     13 C         139.3175  140.1627  168.3070 C.ar    1  UNL1        0.0880
     14 N         138.4238  139.1277  167.6905 N.ar    1  UNL1       -0.2414
     15 C         138.6179  139.1738  166.2038 C.ar    1  UNL1        0.1034
     16 C         139.6317  140.2373  165.9015 C.ar    1  UNL1        0.0514
     17 S         140.0640  140.8484  167.2013 S.2     1  UNL1       -0.0728
     18 C         139.8144  141.8395  170.2283 C.3     1  UNL1        0.0073
     19 C         139.4427  140.4598  169.7720 C.3     1  UNL1        0.0526
     20 N         142.6819  137.1724  157.6448 N.am    1  UNL1       -0.3018
     21 C         143.5326  137.9521  156.6864 C.2     1  UNL1        0.2426
     22 O         143.9112  139.3689  157.0014 O.2     1  UNL1       -0.2733
     23 H         142.4333  136.2425  157.4381 H       1  UNL1        0.1495
     24 C         144.0046  137.3150  155.4132 C.3     1  UNL1        0.1759
     25 N         144.2365  135.8341  155.3567 N.am    1  UNL1       -0.2931
     26 C         143.0705  134.8955  155.2579 C.2     1  UNL1        0.2462
     27 O         141.6727  135.4379  155.2156 O.2     1  UNL1       -0.2701
     28 H         145.1540  135.4781  155.3845 H       1  UNL1        0.1502
     29 C         143.3025  133.4147  155.2014 C.ar    1  UNL1        0.0533
     30 C         142.9244  132.6427  153.9722 C.ar    1  UNL1        0.0045
     31 C         143.1563  131.1617  153.9157 C.ar    1  UNL1        0.0001
     32 C         143.7664  130.4529  155.0885 C.ar    1  UNL1        0.0039
     33 C         144.1445  131.2249  156.3177 C.ar    1  UNL1        0.0716
     34 C         143.9125  132.7058  156.3742 C.ar    1  UNL1        0.0084
     35 C         144.7545  130.5161  157.4904 C.3     1  UNL1        0.4186
     36 F         145.3646  129.8073  158.6633 F       1  UNL1       -0.1659
     37 F         145.5472  131.7459  157.8213 F       1  UNL1       -0.1659
     38 F         143.9618  129.2864  157.1595 F       1  UNL1       -0.1659
@<TRIPOS>BOND
     1    18    19    1
     2    19    13    1
     3    13    14   ar
     4    14    15   ar
     5    15    16   ar
     6    16     5    1
     7     5     6    1
     8     5     7    1
     9     7     8    1
    10     8     9    1
    11     9     1    1
    12     1     2    1
    13     2     3    1
    14     3    20    1
    15    20    21   am
    16    21    22    2
    17    21    24    1
    18    24    25    1
    19    25    26   am
    20    26    27    2
    21    26    29    1
    22    29    30   ar
    23    30    31   ar
    24    31    32   ar
    25    32    33   ar
    26    33    35    1
    27    35    36    1
    28    35    37    1
    29    35    38    1
    30    33    34   ar
    31     3     4    1
    32     9    10    1
    33    10    11    1
    34    16    17   ar
    35    17    13   ar
    36    11     5    1
    37     4     1    1
    38    34    29   ar
    39     6    12    1
    40    20    23    1
    41    25    28    1
@<TRIPOS>MOLECULE
*****
 38 41 0 0 0
SMALL
GASTEIGER

@<TRIPOS>ATOM
      1 N         139.8327  144.1449  158.1396 N.3     1  UNL1       -0.2711
      2 C         139.0162  142.9240  158.4442 C.3     1  UNL1        0.0933
      3 C         139.4310  143.0057  159.8834 C.3     1  UNL1        0.1035
      4 C         140.2475  144.2266  159.5787 C.3     1  UNL1        0.0933
      5 C         140.6848  146.5617  154.4405 C.3     1  UNL1        0.1140
      6 O         141.3985  146.4390  153.1269 O.3     1  UNL1       -0.3821
      7 C         139.8744  147.1556  155.5542 C.3     1  UNL1        0.0331
      8 C         139.5904  146.3500  156.7872 C.3     1  UNL1        0.0187
      9 C         140.1168  144.9505  156.9065 C.3     1  UNL1        0.0578
     10 C         140.9272  144.3566  155.7928 C.3     1  UNL1        0.0187
     11 C         141.2112  145.1621  154.5598 C.3     1  UNL1        0.0331
     12 H         141.3032  147.2658  152.6287 H       1  UNL1        0.2107
     13 C         139.6593  150.2154  153.6252 C.ar    1  UNL1        0.0880
     14 N         140.2964  149.7979  152.3330 N.ar    1  UNL1       -0.2414
     15 C         140.7581  148.3784  152.4812 C.ar    1  UNL1        0.1034
     16 C         140.4063  147.9186  153.8650 C.ar    1  UNL1        0.0514
     17 S         139.7272  149.0539  154.5720 S.2     1  UNL1       -0.0728
     18 C         138.4788  151.8405  155.2731 C.3     1  UNL1        0.0073
     19 C         139.0596  151.5585  153.9191 C.3     1  UNL1        0.0526
     20 N         139.1470  142.2002  161.1164 N.am    1  UNL1       -0.3018
     21 C         138.2823  142.7698  162.2018 C.2     1  UNL1        0.2426
     22 O         137.7017  144.1450  162.0540 O.2     1  UNL1       -0.2733
     23 H         139.5281  141.2976  161.2134 H       1  UNL1        0.1495
     24 C         137.9983  141.9643  163.4348 C.3     1  UNL1        0.1759
     25 N         138.7504  142.2428  164.7023 N.am    1  UNL1       -0.2931
     26 C         140.1578  141.7491  164.8633 C.2     1  UNL1        0.2462
     27 O         140.8128  140.9769  163.7567 O.2     1  UNL1       -0.2701
     28 H         138.3205  142.7496  165.4286 H       1  UNL1        0.1502
     29 C         140.9099  142.0276  166.1308 C.ar    1  UNL1        0.0533
     30 C         142.4075  141.9442  166.1480 C.ar    1  UNL1        0.0045
     31 C         143.1597  142.2227  167.4156 C.ar    1  UNL1        0.0001
     32 C         142.4142  142.5847  168.6659 C.ar    1  UNL1        0.0039
     33 C         140.9166  142.6681  168.6487 C.ar    1  UNL1        0.0716
     34 C         140.1645  142.3896  167.3812 C.ar    1  UNL1        0.0084
     35 C         140.1712  143.0300  169.8990 C.3     1  UNL1        0.4186
     36 F         139.4258  143.3920  171.1494 F       1  UNL1       -0.1659
     37 F         140.9459  144.3114  169.9899 F       1  UNL1       -0.1659
     38 F         139.3966  141.7488  169.8081 F       1  UNL1       -0.1659
@<TRIPOS>BOND
     1    18    19    1
     2    19    13    1
     3    13    14   ar
     4    14    15   ar
     5    15    16   ar
     6    16     5    1
     7     5     6    1
     8     5     7    1
     9     7     8    1
    10     8     9    1
    11     9     1    1
    12     1     2    1
    13     2     3    1
    14     3    20    1
    15    20    21   am
    16    21    22    2
    17    21    24    1
    18    24    25    1
    19    25    26   am
    20    26    27    2
    21    26    29    1
    22    29    30   ar
    23    30    31   ar
    24    31    32   ar
    25    32    33   ar
    26    33    35    1
    27    35    36    1
    28    35    37    1
    29    35    38    1
    30    33    34   ar
    31     3     4    1
    32     9    10    1
    33    10    11    1
    34    16    17   ar
    35    17    13   ar
    36    11     5    1
    37     4     1    1
    38    34    29   ar
    39     6    12    1
    40    20    23    1
    41    25    28    1
