@<TRIPOS>MOLECULE
*****
 25 28 0 0 0
SMALL
GASTEIGER

@<TRIPOS>ATOM
      1 N         141.6602  141.1074  165.8270 N.pl3   1  UNL1       -0.2860
      2 C         142.9465  141.2302  165.0651 C.ar    1  UNL1        0.0576
      3 C         143.8051  142.4484  165.2345 C.ar    1  UNL1        0.0153
      4 C         145.0914  142.5712  164.4727 C.ar    1  UNL1        0.0013
      5 C         145.5190  141.4758  163.5415 C.ar    1  UNL1        0.0006
      6 C         144.6604  140.2576  163.3721 C.ar    1  UNL1        0.0077
      7 C         143.3741  140.1348  164.1339 C.ar    1  UNL1        0.0431
      8 S         142.5155  138.9166  163.9645 S.3     1  UNL1       -0.0844
      9 C         141.2292  138.7938  164.7263 C.ar    1  UNL1        0.0431
     10 C         140.3705  137.5755  164.5569 C.ar    1  UNL1        0.0086
     11 C         139.0843  137.4527  165.3188 C.ar    1  UNL1        0.0120
     12 C         138.6566  138.5482  166.2500 C.ar    1  UNL1        0.0589
     13 CL        137.3704  138.4254  167.0119 Cl      1  UNL1       -0.0822
     14 C         139.5152  139.7664  166.4194 C.ar    1  UNL1        0.0267
     15 C         140.8016  139.8892  165.6576 C.ar    1  UNL1        0.0585
     16 C         141.2325  142.2028  166.7582 C.3     1  UNL1        0.0970
     17 C         140.2116  143.2083  166.3147 C.3     1  UNL1        0.0391
     18 C         140.1290  143.6064  164.8709 C.3     1  UNL1        0.0739
     19 C         137.5270  139.9446  160.8934 C.3     1  UNL1        0.0897
     20 N         138.1775  140.8601  161.8878 N.3     1  UNL1       -0.2691
     21 C         139.5980  141.2979  161.6868 C.3     1  UNL1        0.0897
     22 C         140.2485  142.2133  162.6811 C.3     1  UNL1        0.0897
     23 N         139.4785  142.6910  163.8765 N.3     1  UNL1       -0.2703
     24 C         138.0580  142.2532  164.0775 C.3     1  UNL1        0.0897
     25 C         137.4074  141.3377  163.0831 C.3     1  UNL1        0.0897
@<TRIPOS>BOND
     1    19    20    1
     2    20    21    1
     3    21    22    1
     4    22    23    1
     5    23    18    1
     6    18    17    1
     7    17    16    1
     8    16     1    1
     9     1     2    1
    10     2     3   ar
    11     3     4   ar
    12     4     5   ar
    13     5     6   ar
    14     6     7   ar
    15     7     8    1
    16     8     9    1
    17     9    10   ar
    18    10    11   ar
    19    11    12   ar
    20    12    13    1
    21    12    14   ar
    22    14    15   ar
    23    23    24    1
    24    24    25    1
    25    25    20    1
    26    15     1    1
    27     7     2   ar
    28    15     9   ar
@<TRIPOS>MOLECULE
*****
 25 28 0 0 0
SMALL
GASTEIGER

@<TRIPOS>ATOM
      1 N         140.9007  142.2838  165.0597 N.pl3   1  UNL1       -0.2860
      2 C         142.0383  142.7400  164.1949 C.ar    1  UNL1        0.0576
      3 C         142.4885  144.1700  164.2406 C.ar    1  UNL1        0.0153
      4 C         143.6260  144.6262  163.3758 C.ar    1  UNL1        0.0013
      5 C         144.3134  143.6522  162.4654 C.ar    1  UNL1        0.0006
      6 C         143.8632  142.2221  162.4197 C.ar    1  UNL1        0.0077
      7 C         142.7257  141.7660  163.2845 C.ar    1  UNL1        0.0431
      8 S         142.2754  140.3358  163.2388 S.3     1  UNL1       -0.0844
      9 C         141.1378  139.8797  164.1036 C.ar    1  UNL1        0.0431
     10 C         140.6876  138.4496  164.0580 C.ar    1  UNL1        0.0086
     11 C         139.5500  137.9934  164.9227 C.ar    1  UNL1        0.0120
     12 C         138.8627  138.9674  165.8332 C.ar    1  UNL1        0.0589
     13 CL        137.7251  138.5113  166.6979 Cl      1  UNL1       -0.0822
     14 C         139.3128  140.3975  165.8788 C.ar    1  UNL1        0.0267
     15 C         140.4505  140.8537  165.0140 C.ar    1  UNL1        0.0585
     16 C         140.2133  143.2578  165.9701 C.3     1  UNL1        0.0970
     17 C         139.1577  144.1750  165.4276 C.3     1  UNL1        0.0391
     18 C         138.3890  143.7899  164.1985 C.3     1  UNL1        0.0739
     19 C         140.5050  145.2138  158.7676 C.3     1  UNL1        0.0897
     20 N         139.9759  144.8579  160.1254 N.3     1  UNL1       -0.2691
     21 C         139.4484  143.4782  160.3867 C.3     1  UNL1        0.0897
     22 C         138.9194  143.1222  161.7443 C.3     1  UNL1        0.0897
     23 N         138.9180  144.1458  162.8407 N.3     1  UNL1       -0.2703
     24 C         139.4455  145.5255  162.5794 C.3     1  UNL1        0.0897
     25 C         139.9745  145.8815  161.2218 C.3     1  UNL1        0.0897
@<TRIPOS>BOND
     1    19    20    1
     2    20    21    1
     3    21    22    1
     4    22    23    1
     5    23    18    1
     6    18    17    1
     7    17    16    1
     8    16     1    1
     9     1     2    1
    10     2     3   ar
    11     3     4   ar
    12     4     5   ar
    13     5     6   ar
    14     6     7   ar
    15     7     8    1
    16     8     9    1
    17     9    10   ar
    18    10    11   ar
    19    11    12   ar
    20    12    13    1
    21    12    14   ar
    22    14    15   ar
    23    23    24    1
    24    24    25    1
    25    25    20    1
    26    15     1    1
    27     7     2   ar
    28    15     9   ar
@<TRIPOS>MOLECULE
*****
 25 28 0 0 0
SMALL
GASTEIGER

@<TRIPOS>ATOM
      1 N         141.2745  141.1268  166.1155 N.pl3   1  UNL1       -0.2860
      2 C         142.5123  140.4067  165.6691 C.ar    1  UNL1        0.0576
      3 C         142.9109  139.1202  166.3295 C.ar    1  UNL1        0.0153
      4 C         144.1486  138.4001  165.8832 C.ar    1  UNL1        0.0013
      5 C         144.9879  138.9664  164.7764 C.ar    1  UNL1        0.0006
      6 C         144.5893  140.2529  164.1160 C.ar    1  UNL1        0.0077
      7 C         143.3516  140.9730  164.5624 C.ar    1  UNL1        0.0431
      8 S         142.9530  142.2595  163.9020 S.3     1  UNL1       -0.0844
      9 C         141.7152  142.9796  164.3483 C.ar    1  UNL1        0.0431
     10 C         141.3166  144.2662  163.6879 C.ar    1  UNL1        0.0086
     11 C         140.0788  144.9863  164.1343 C.ar    1  UNL1        0.0120
     12 C         139.2396  144.4199  165.2411 C.ar    1  UNL1        0.0589
     13 CL        138.0018  145.1400  165.6874 Cl      1  UNL1       -0.0822
     14 C         139.6381  143.1335  165.9015 C.ar    1  UNL1        0.0267
     15 C         140.8759  142.4133  165.4551 C.ar    1  UNL1        0.0585
     16 C         140.4352  140.5605  167.2223 C.3     1  UNL1        0.0970
     17 C         139.2123  139.7544  166.8989 C.3     1  UNL1        0.0391
     18 C         139.2770  138.6795  165.8547 C.3     1  UNL1        0.0739
     19 C         137.3086  139.7769  160.2939 C.3     1  UNL1        0.0897
     20 N         137.8008  139.5025  161.6841 N.3     1  UNL1       -0.2691
     21 C         137.6738  140.5544  162.7459 C.3     1  UNL1        0.0897
     22 C         138.1659  140.2801  164.1361 C.3     1  UNL1        0.0897
     23 N         138.7849  138.9539  164.4644 N.3     1  UNL1       -0.2703
     24 C         138.9118  137.9020  163.4027 C.3     1  UNL1        0.0897
     25 C         138.4198  138.1763  162.0125 C.3     1  UNL1        0.0897
@<TRIPOS>BOND
     1    19    20    1
     2    20    21    1
     3    21    22    1
     4    22    23    1
     5    23    18    1
     6    18    17    1
     7    17    16    1
     8    16     1    1
     9     1     2    1
    10     2     3   ar
    11     3     4   ar
    12     4     5   ar
    13     5     6   ar
    14     6     7   ar
    15     7     8    1
    16     8     9    1
    17     9    10   ar
    18    10    11   ar
    19    11    12   ar
    20    12    13    1
    21    12    14   ar
    22    14    15   ar
    23    23    24    1
    24    24    25    1
    25    25    20    1
    26    15     1    1
    27     7     2   ar
    28    15     9   ar
@<TRIPOS>MOLECULE
*****
 25 28 0 0 0
SMALL
GASTEIGER

@<TRIPOS>ATOM
      1 N         141.5175  138.9524  164.5345 N.pl3   1  UNL1       -0.2860
      2 C         140.2694  138.7672  165.3458 C.ar    1  UNL1        0.0576
      3 C         139.3848  137.5809  165.1008 C.ar    1  UNL1        0.0153
      4 C         138.1368  137.3957  165.9121 C.ar    1  UNL1        0.0013
      5 C         137.7734  138.3969  166.9683 C.ar    1  UNL1        0.0006
      6 C         138.6581  139.5832  167.2133 C.ar    1  UNL1        0.0077
      7 C         139.9060  139.7683  166.4020 C.ar    1  UNL1        0.0431
      8 S         140.7908  140.9547  166.6470 S.3     1  UNL1       -0.0844
      9 C         142.0387  141.1398  165.8357 C.ar    1  UNL1        0.0431
     10 C         142.9234  142.3262  166.0806 C.ar    1  UNL1        0.0086
     11 C         144.1714  142.5113  165.2694 C.ar    1  UNL1        0.0120
     12 C         144.5348  141.5102  164.2131 C.ar    1  UNL1        0.0589
     13 CL        145.7828  141.6953  163.4018 Cl      1  UNL1       -0.0822
     14 C         143.6502  140.3239  163.9681 C.ar    1  UNL1        0.0267
     15 C         142.4021  140.1387  164.7794 C.ar    1  UNL1        0.0585
     16 C         141.8808  137.9512  163.4782 C.3     1  UNL1        0.0970
     17 C         141.5071  138.2016  162.0473 C.3     1  UNL1        0.0391
     18 C         140.0825  138.5006  161.6854 C.3     1  UNL1        0.0739
     19 C         137.7295  143.8724  162.9532 C.3     1  UNL1        0.0897
     20 N         138.3178  142.5294  162.6363 N.3     1  UNL1       -0.2691
     21 C         137.4972  141.2879  162.8244 C.3     1  UNL1        0.0897
     22 C         138.0854  139.9450  162.5074 C.3     1  UNL1        0.0897
     23 N         139.4942  139.8436  162.0024 N.3     1  UNL1       -0.2703
     24 C         140.3147  141.0851  161.8143 C.3     1  UNL1        0.0897
     25 C         139.7265  142.4280  162.1313 C.3     1  UNL1        0.0897
@<TRIPOS>BOND
     1    19    20    1
     2    20    21    1
     3    21    22    1
     4    22    23    1
     5    23    18    1
     6    18    17    1
     7    17    16    1
     8    16     1    1
     9     1     2    1
    10     2     3   ar
    11     3     4   ar
    12     4     5   ar
    13     5     6   ar
    14     6     7   ar
    15     7     8    1
    16     8     9    1
    17     9    10   ar
    18    10    11   ar
    19    11    12   ar
    20    12    13    1
    21    12    14   ar
    22    14    15   ar
    23    23    24    1
    24    24    25    1
    25    25    20    1
    26    15     1    1
    27     7     2   ar
    28    15     9   ar
@<TRIPOS>MOLECULE
*****
 25 28 0 0 0
SMALL
GASTEIGER

@<TRIPOS>ATOM
      1 N         140.7530  142.5203  165.0493 N.pl3   1  UNL1       -0.2860
      2 C         141.9129  142.9910  164.2226 C.ar    1  UNL1        0.0576
      3 C         142.2586  144.4498  164.1773 C.ar    1  UNL1        0.0153
      4 C         143.4184  144.9204  163.3507 C.ar    1  UNL1        0.0013
      5 C         144.2325  143.9321  162.5694 C.ar    1  UNL1        0.0006
      6 C         143.8868  142.4732  162.6147 C.ar    1  UNL1        0.0077
      7 C         142.7270  142.0027  163.4413 C.ar    1  UNL1        0.0431
      8 S         142.3813  140.5437  163.4867 S.3     1  UNL1       -0.0844
      9 C         141.2214  140.0731  164.3133 C.ar    1  UNL1        0.0431
     10 C         140.8757  138.6142  164.3586 C.ar    1  UNL1        0.0086
     11 C         139.7159  138.1436  165.1852 C.ar    1  UNL1        0.0120
     12 C         138.9017  139.1319  165.9665 C.ar    1  UNL1        0.0589
     13 CL        137.7419  138.6613  166.7931 Cl      1  UNL1       -0.0822
     14 C         139.2474  140.5908  165.9212 C.ar    1  UNL1        0.0267
     15 C         140.4073  141.0614  165.0946 C.ar    1  UNL1        0.0585
     16 C         139.9389  143.5086  165.8306 C.3     1  UNL1        0.0970
     17 C         138.9128  144.3524  165.1340 C.3     1  UNL1        0.0391
     18 C         137.7462  143.7028  164.4505 C.3     1  UNL1        0.0739
     19 C         138.5783  140.6375  159.3601 C.3     1  UNL1        0.0897
     20 N         138.3703  141.4039  160.6327 N.3     1  UNL1       -0.2691
     21 C         137.5882  140.7923  161.7571 C.3     1  UNL1        0.0897
     22 C         137.3801  141.5586  163.0297 C.3     1  UNL1        0.0897
     23 N         137.9543  142.9364  163.1779 N.3     1  UNL1       -0.2703
     24 C         138.7364  143.5479  162.0535 C.3     1  UNL1        0.0897
     25 C         138.9444  142.7817  160.7809 C.3     1  UNL1        0.0897
@<TRIPOS>BOND
     1    19    20    1
     2    20    21    1
     3    21    22    1
     4    22    23    1
     5    23    18    1
     6    18    17    1
     7    17    16    1
     8    16     1    1
     9     1     2    1
    10     2     3   ar
    11     3     4   ar
    12     4     5   ar
    13     5     6   ar
    14     6     7   ar
    15     7     8    1
    16     8     9    1
    17     9    10   ar
    18    10    11   ar
    19    11    12   ar
    20    12    13    1
    21    12    14   ar
    22    14    15   ar
    23    23    24    1
    24    24    25    1
    25    25    20    1
    26    15     1    1
    27     7     2   ar
    28    15     9   ar
@<TRIPOS>MOLECULE
*****
 25 28 0 0 0
SMALL
GASTEIGER

@<TRIPOS>ATOM
      1 N         139.4644  140.1829  165.9270 N.pl3   1  UNL1       -0.2860
      2 C         138.8866  141.2286  165.0200 C.ar    1  UNL1        0.0576
      3 C         137.8934  140.8406  163.9650 C.ar    1  UNL1        0.0153
      4 C         137.3157  141.8863  163.0580 C.ar    1  UNL1        0.0013
      5 C         137.7312  143.3200  163.2059 C.ar    1  UNL1        0.0006
      6 C         138.7244  143.7080  164.2609 C.ar    1  UNL1        0.0077
      7 C         139.3021  142.6623  165.1679 C.ar    1  UNL1        0.0431
      8 S         140.2954  143.0503  166.2229 S.3     1  UNL1       -0.0844
      9 C         140.8731  142.0046  167.1299 C.ar    1  UNL1        0.0431
     10 C         141.8664  142.3925  168.1849 C.ar    1  UNL1        0.0086
     11 C         142.4441  141.3469  169.0919 C.ar    1  UNL1        0.0120
     12 C         142.0286  139.9132  168.9440 C.ar    1  UNL1        0.0589
     13 CL        142.6064  138.8675  169.8510 Cl      1  UNL1       -0.0822
     14 C         141.0354  139.5251  167.8891 C.ar    1  UNL1        0.0267
     15 C         140.4576  140.5709  166.9820 C.ar    1  UNL1        0.0585
     16 C         139.0489  138.7492  165.7791 C.3     1  UNL1        0.0970
     17 C         139.6464  137.9033  164.6940 C.3     1  UNL1        0.0391
     18 C         141.1007  137.5390  164.7420 C.3     1  UNL1        0.0739
     19 C         145.2432  141.4859  162.9358 C.3     1  UNL1        0.0897
     20 N         144.2076  140.4991  163.3874 N.3     1  UNL1       -0.2691
     21 C         142.9322  140.3433  162.6133 C.3     1  UNL1        0.0897
     22 C         141.8966  139.3566  163.0648 C.3     1  UNL1        0.0897
     23 N         142.1363  138.5257  164.2904 N.3     1  UNL1       -0.2703
     24 C         143.4117  138.6816  165.0645 C.3     1  UNL1        0.0897
     25 C         144.4473  139.6682  164.6130 C.3     1  UNL1        0.0897
@<TRIPOS>BOND
     1    19    20    1
     2    20    21    1
     3    21    22    1
     4    22    23    1
     5    23    18    1
     6    18    17    1
     7    17    16    1
     8    16     1    1
     9     1     2    1
    10     2     3   ar
    11     3     4   ar
    12     4     5   ar
    13     5     6   ar
    14     6     7   ar
    15     7     8    1
    16     8     9    1
    17     9    10   ar
    18    10    11   ar
    19    11    12   ar
    20    12    13    1
    21    12    14   ar
    22    14    15   ar
    23    23    24    1
    24    24    25    1
    25    25    20    1
    26    15     1    1
    27     7     2   ar
    28    15     9   ar
@<TRIPOS>MOLECULE
*****
 25 28 0 0 0
SMALL
GASTEIGER

@<TRIPOS>ATOM
      1 N         141.3424  140.3686  165.9448 N.pl3   1  UNL1       -0.2860
      2 C         140.1684  139.4417  166.0577 C.ar    1  UNL1        0.0576
      3 C         139.0778  139.7297  167.0464 C.ar    1  UNL1        0.0153
      4 C         137.9039  138.8028  167.1592 C.ar    1  UNL1        0.0013
      5 C         137.8206  137.5879  166.2833 C.ar    1  UNL1        0.0006
      6 C         138.9112  137.3000  165.2946 C.ar    1  UNL1        0.0077
      7 C         140.0851  138.2268  165.1818 C.ar    1  UNL1        0.0431
      8 S         141.1758  137.9389  164.1930 S.3     1  UNL1       -0.0844
      9 C         142.3497  138.8658  164.0802 C.ar    1  UNL1        0.0431
     10 C         143.4403  138.5778  163.0914 C.ar    1  UNL1        0.0086
     11 C         144.6143  139.5047  162.9785 C.ar    1  UNL1        0.0120
     12 C         144.6976  140.7196  163.8544 C.ar    1  UNL1        0.0589
     13 CL        145.8715  141.6464  163.7416 Cl      1  UNL1       -0.0822
     14 C         143.6070  141.0075  164.8432 C.ar    1  UNL1        0.0267
     15 C         142.4330  140.0806  164.9560 C.ar    1  UNL1        0.0585
     16 C         141.4257  141.5835  166.8207 C.3     1  UNL1        0.0970
     17 C         141.0611  142.9307  166.2712 C.3     1  UNL1        0.0391
     18 C         139.6818  143.1734  165.7341 C.3     1  UNL1        0.0739
     19 C         138.0255  140.7350  160.5080 C.3     1  UNL1        0.0897
     20 N         138.4396  141.3446  161.8146 N.3     1  UNL1       -0.2691
     21 C         137.4950  141.3344  162.9798 C.3     1  UNL1        0.0897
     22 C         137.9091  141.9439  164.2863 C.3     1  UNL1        0.0897
     23 N         139.2677  142.5637  164.4275 N.3     1  UNL1       -0.2703
     24 C         140.2122  142.5740  163.2623 C.3     1  UNL1        0.0897
     25 C         139.7982  141.9644  161.9558 C.3     1  UNL1        0.0897
@<TRIPOS>BOND
     1    19    20    1
     2    20    21    1
     3    21    22    1
     4    22    23    1
     5    23    18    1
     6    18    17    1
     7    17    16    1
     8    16     1    1
     9     1     2    1
    10     2     3   ar
    11     3     4   ar
    12     4     5   ar
    13     5     6   ar
    14     6     7   ar
    15     7     8    1
    16     8     9    1
    17     9    10   ar
    18    10    11   ar
    19    11    12   ar
    20    12    13    1
    21    12    14   ar
    22    14    15   ar
    23    23    24    1
    24    24    25    1
    25    25    20    1
    26    15     1    1
    27     7     2   ar
    28    15     9   ar
@<TRIPOS>MOLECULE
*****
 25 28 0 0 0
SMALL
GASTEIGER

@<TRIPOS>ATOM
      1 N         139.3951  140.2942  165.9436 N.pl3   1  UNL1       -0.2860
      2 C         138.9146  141.3351  164.9761 C.ar    1  UNL1        0.0576
      3 C         137.8180  141.0083  164.0063 C.ar    1  UNL1        0.0153
      4 C         137.3376  142.0490  163.0388 C.ar    1  UNL1        0.0013
      5 C         137.9538  143.4166  163.0412 C.ar    1  UNL1        0.0006
      6 C         139.0504  143.7434  164.0111 C.ar    1  UNL1        0.0077
      7 C         139.5308  142.7026  164.9785 C.ar    1  UNL1        0.0431
      8 S         140.6275  143.0294  165.9484 S.3     1  UNL1       -0.0844
      9 C         141.1079  141.9886  166.9158 C.ar    1  UNL1        0.0431
     10 C         142.2045  142.3154  167.8857 C.ar    1  UNL1        0.0086
     11 C         142.6849  141.2746  168.8531 C.ar    1  UNL1        0.0120
     12 C         142.0687  139.9070  168.8507 C.ar    1  UNL1        0.0589
     13 CL        142.5491  138.8663  169.8181 Cl      1  UNL1       -0.0822
     14 C         140.9721  139.5802  167.8809 C.ar    1  UNL1        0.0267
     15 C         140.4917  140.6210  166.9134 C.ar    1  UNL1        0.0585
     16 C         138.7788  138.9267  165.9412 C.3     1  UNL1        0.0970
     17 C         139.3757  137.8366  165.1013 C.3     1  UNL1        0.0391
     18 C         138.8949  137.6238  163.6964 C.3     1  UNL1        0.0739
     19 C         142.6240  138.5171  159.0817 C.3     1  UNL1        0.0897
     20 N         141.6917  138.2938  160.2354 N.3     1  UNL1       -0.2691
     21 C         142.2312  137.8352  161.5577 C.3     1  UNL1        0.0897
     22 C         141.2990  137.6118  162.7114 C.3     1  UNL1        0.0897
     23 N         139.8272  137.8471  162.5427 N.3     1  UNL1       -0.2703
     24 C         139.2877  138.3057  161.2204 C.3     1  UNL1        0.0897
     25 C         140.2199  138.5290  160.0667 C.3     1  UNL1        0.0897
@<TRIPOS>BOND
     1    19    20    1
     2    20    21    1
     3    21    22    1
     4    22    23    1
     5    23    18    1
     6    18    17    1
     7    17    16    1
     8    16     1    1
     9     1     2    1
    10     2     3   ar
    11     3     4   ar
    12     4     5   ar
    13     5     6   ar
    14     6     7   ar
    15     7     8    1
    16     8     9    1
    17     9    10   ar
    18    10    11   ar
    19    11    12   ar
    20    12    13    1
    21    12    14   ar
    22    14    15   ar
    23    23    24    1
    24    24    25    1
    25    25    20    1
    26    15     1    1
    27     7     2   ar
    28    15     9   ar
@<TRIPOS>MOLECULE
*****
 25 28 0 0 0
SMALL
GASTEIGER

@<TRIPOS>ATOM
      1 N         140.5618  141.7817  165.1450 N.pl3   1  UNL1       -0.2860
      2 C         139.9769  140.4007  165.1731 C.ar    1  UNL1        0.0576
      3 C         138.8569  140.0796  166.1178 C.ar    1  UNL1        0.0153
      4 C         138.2721  138.6986  166.1459 C.ar    1  UNL1        0.0013
      5 C         138.8073  137.6387  165.2293 C.ar    1  UNL1        0.0006
      6 C         139.9273  137.9598  164.2846 C.ar    1  UNL1        0.0077
      7 C         140.5121  139.3408  164.2565 C.ar    1  UNL1        0.0431
      8 S         141.6322  139.6619  163.3118 S.3     1  UNL1       -0.0844
      9 C         142.2170  141.0429  163.2838 C.ar    1  UNL1        0.0431
     10 C         143.3371  141.3641  162.3391 C.ar    1  UNL1        0.0086
     11 C         143.9219  142.7451  162.3110 C.ar    1  UNL1        0.0120
     12 C         143.3867  143.8050  163.2276 C.ar    1  UNL1        0.0589
     13 CL        143.9715  145.1860  163.1996 Cl      1  UNL1       -0.0822
     14 C         142.2667  143.4839  164.1723 C.ar    1  UNL1        0.0267
     15 C         141.6818  142.1028  164.2004 C.ar    1  UNL1        0.0585
     16 C         140.0266  142.8416  166.0617 C.3     1  UNL1        0.0970
     17 C         139.1674  143.9426  165.5143 C.3     1  UNL1        0.0391
     18 C         138.3240  143.7013  164.2975 C.3     1  UNL1        0.0739
     19 C         140.4419  145.0850  158.8569 C.3     1  UNL1        0.0897
     20 N         139.9124  144.7390  160.2171 N.3     1  UNL1       -0.2691
     21 C         139.9274  145.7652  161.3110 C.3     1  UNL1        0.0897
     22 C         139.3980  145.4193  162.6711 C.3     1  UNL1        0.0897
     23 N         138.8535  144.0473  162.9373 N.3     1  UNL1       -0.2703
     24 C         138.8385  143.0211  161.8434 C.3     1  UNL1        0.0897
     25 C         139.3679  143.3669  160.4832 C.3     1  UNL1        0.0897
@<TRIPOS>BOND
     1    19    20    1
     2    20    21    1
     3    21    22    1
     4    22    23    1
     5    23    18    1
     6    18    17    1
     7    17    16    1
     8    16     1    1
     9     1     2    1
    10     2     3   ar
    11     3     4   ar
    12     4     5   ar
    13     5     6   ar
    14     6     7   ar
    15     7     8    1
    16     8     9    1
    17     9    10   ar
    18    10    11   ar
    19    11    12   ar
    20    12    13    1
    21    12    14   ar
    22    14    15   ar
    23    23    24    1
    24    24    25    1
    25    25    20    1
    26    15     1    1
    27     7     2   ar
    28    15     9   ar
