@<TRIPOS>MOLECULE
*****
 33 37 0 0 0
SMALL
GASTEIGER

@<TRIPOS>ATOM
      1 N         138.0988  140.4100  163.2180 N.3     1  UNL1       -0.2724
      2 C         138.1711  139.0768  162.5344 C.3     1  UNL1        0.0724
      3 C         139.0889  138.1969  163.3304 C.3     1  UNL1        0.0214
      4 C         140.0329  137.5684  164.3121 C.3     1  UNL1        0.0072
      5 C         139.5838  138.9864  164.5059 C.3     1  UNL1        0.0350
      6 C         138.9719  140.3541  164.4364 C.3     1  UNL1        0.0761
      7 C         140.3630  139.2270  165.7648 C.ar    1  UNL1       -0.0192
      8 C         141.8352  138.9416  165.8017 C.ar    1  UNL1       -0.0042
      9 C         142.6145  139.1822  167.0607 C.ar    1  UNL1        0.0058
     10 C         141.9215  139.7082  168.2827 C.ar    1  UNL1        0.0988
     11 C         140.4493  139.9936  168.2457 C.ar    1  UNL1        0.1437
     12 F         139.7564  140.5196  169.4677 F       1  UNL1       -0.2042
     13 C         139.6701  139.7530  166.9868 C.ar    1  UNL1        0.0253
     14 C         142.7007  139.9488  169.5416 C.3     1  UNL1        0.4207
     15 F         143.4799  140.1894  170.8005 F       1  UNL1       -0.1658
     16 F         142.1283  138.6959  170.1354 F       1  UNL1       -0.1658
     17 F         143.2732  141.2017  168.9479 F       1  UNL1       -0.1658
     18 C         137.2945  141.5916  162.7630 C.3     1  UNL1        0.0730
     19 C         137.9844  142.8717  162.3952 C.3     1  UNL1        0.0294
     20 C         137.7400  144.1136  163.2002 C.3     1  UNL1        0.0666
     21 S         138.8720  144.7626  163.9402 S.3     1  UNL1       -0.0756
     22 C         142.1516  142.7296  164.3591 C.ar    1  UNL1        0.2029
     23 N         141.5737  142.6351  165.7400 N.ar    1  UNL1       -0.1250
     24 N         140.2748  143.3852  165.7512 N.ar    1  UNL1       -0.1220
     25 C         140.0500  143.9432  164.3771 C.ar    1  UNL1        0.1933
     26 N         141.2100  143.5380  163.5168 N.ar    1  UNL1       -0.2860
     27 C         141.3956  143.8811  162.0684 C.3     1  UNL1        0.1341
     28 C         142.4674  140.2164  162.3014 C.3     1  UNL1        0.0556
     29 C         143.5895  140.9671  162.9551 C.ar    1  UNL1        0.1001
     30 N         145.0538  140.6943  162.7778 N.ar    1  UNL1       -0.2085
     31 C         145.8137  141.6809  163.6141 C.ar    1  UNL1        0.2849
     32 O         144.8191  142.5633  164.3081 O.2     1  UNL1       -0.4283
     33 C         143.4444  142.1222  163.9009 C.ar    1  UNL1        0.1964
@<TRIPOS>BOND
     1    28    29    1
     2    29    30   ar
     3    30    31   ar
     4    31    32   ar
     5    32    33   ar
     6    33    22    1
     7    22    23   ar
     8    23    24   ar
     9    24    25   ar
    10    25    21    1
    11    21    20    1
    12    20    19    1
    13    19    18    1
    14    18     1    1
    15     1     2    1
    16     2     3    1
    17     3     4    1
    18     4     5    1
    19     5     7    1
    20     7     8   ar
    21     8     9   ar
    22     9    10   ar
    23    10    14    1
    24    14    15    1
    25    14    16    1
    26    14    17    1
    27    10    11   ar
    28    11    12    1
    29    11    13   ar
    30     5     6    1
    31    25    26   ar
    32    26    27    1
    33    33    29   ar
    34    26    22   ar
    35     6     1    1
    36     5     3    1
    37    13     7   ar
@<TRIPOS>MOLECULE
*****
 33 37 0 0 0
SMALL
GASTEIGER

@<TRIPOS>ATOM
      1 N         142.5355  143.8823  164.0289 N.3     1  UNL1       -0.2724
      2 C         141.6757  145.1053  163.9064 C.3     1  UNL1        0.0724
      3 C         140.2860  144.7401  164.3369 C.3     1  UNL1        0.0214
      4 C         139.0208  144.0907  164.8139 C.3     1  UNL1        0.0072
      5 C         140.2869  143.2913  164.7255 C.3     1  UNL1        0.0350
      6 C         141.6771  142.7611  164.5351 C.3     1  UNL1        0.0761
      7 C         139.6932  142.0030  165.2132 C.ar    1  UNL1       -0.0192
      8 C         138.6842  141.2769  164.3737 C.ar    1  UNL1       -0.0042
      9 C         138.0905  139.9885  164.8614 C.ar    1  UNL1        0.0058
     10 C         138.5058  139.4264  166.1886 C.ar    1  UNL1        0.0988
     11 C         139.5148  140.1525  167.0281 C.ar    1  UNL1        0.1437
     12 F         139.9301  139.5903  168.3554 F       1  UNL1       -0.2042
     13 C         140.1085  141.4408  166.5404 C.ar    1  UNL1        0.0253
     14 C         137.9122  138.1381  166.6763 C.3     1  UNL1        0.4207
     15 F         137.3185  136.8498  167.1641 F       1  UNL1       -0.1658
     16 F         137.2792  138.8649  167.8257 F       1  UNL1       -0.1658
     17 F         138.5452  137.4113  165.5270 F       1  UNL1       -0.1658
     18 C         143.9969  143.7956  163.7024 C.3     1  UNL1        0.0730
     19 C         144.8795  142.8477  164.4591 C.3     1  UNL1        0.0294
     20 C         145.5771  141.7336  163.7366 C.3     1  UNL1        0.0666
     21 S         144.8910  140.4121  163.5549 S.3     1  UNL1       -0.0756
     22 C         141.5131  139.7919  161.7465 C.ar    1  UNL1        0.2029
     23 N         142.3075  140.4516  160.6586 N.ar    1  UNL1       -0.1250
     24 N         143.6695  140.7642  161.2035 N.ar    1  UNL1       -0.1220
     25 C         143.7169  140.2977  162.6284 C.ar    1  UNL1        0.1933
     26 N         142.3842  139.6968  162.9639 N.ar    1  UNL1       -0.2860
     27 C         141.9915  139.1048  164.2850 C.3     1  UNL1        0.1341
     28 C         138.9843  141.5192  160.6191 C.3     1  UNL1        0.0556
     29 C         138.9340  140.1055  161.1182 C.ar    1  UNL1        0.1001
     30 N         137.7125  139.2377  161.1867 N.ar    1  UNL1       -0.2085
     31 C         138.1199  137.9074  161.7472 C.ar    1  UNL1        0.2849
     32 O         139.5931  137.9531  162.0252 O.2     1  UNL1       -0.4283
     33 C         140.0963  139.3116  161.6364 C.ar    1  UNL1        0.1964
@<TRIPOS>BOND
     1    28    29    1
     2    29    30   ar
     3    30    31   ar
     4    31    32   ar
     5    32    33   ar
     6    33    22    1
     7    22    23   ar
     8    23    24   ar
     9    24    25   ar
    10    25    21    1
    11    21    20    1
    12    20    19    1
    13    19    18    1
    14    18     1    1
    15     1     2    1
    16     2     3    1
    17     3     4    1
    18     4     5    1
    19     5     7    1
    20     7     8   ar
    21     8     9   ar
    22     9    10   ar
    23    10    14    1
    24    14    15    1
    25    14    16    1
    26    14    17    1
    27    10    11   ar
    28    11    12    1
    29    11    13   ar
    30     5     6    1
    31    25    26   ar
    32    26    27    1
    33    33    29   ar
    34    26    22   ar
    35     6     1    1
    36     5     3    1
    37    13     7   ar
@<TRIPOS>MOLECULE
*****
 33 37 0 0 0
SMALL
GASTEIGER

@<TRIPOS>ATOM
      1 N         143.9992  140.0942  163.8867 N.3     1  UNL1       -0.2724
      2 C         144.9923  141.1371  163.4670 C.3     1  UNL1        0.0724
      3 C         144.8374  142.3182  164.3786 C.3     1  UNL1        0.0214
      4 C         144.4584  143.3252  165.4236 C.3     1  UNL1        0.0072
      5 C         143.7486  142.0053  165.3618 C.3     1  UNL1        0.0350
      6 C         143.2306  140.6308  165.0577 C.3     1  UNL1        0.0761
      7 C         142.8316  142.2659  166.5198 C.ar    1  UNL1       -0.0192
      8 C         141.3595  142.4359  166.2873 C.ar    1  UNL1       -0.0042
      9 C         140.4424  142.6966  167.4454 C.ar    1  UNL1        0.0058
     10 C         140.9975  142.7871  168.8360 C.ar    1  UNL1        0.0988
     11 C         142.4697  142.6171  169.0685 C.ar    1  UNL1        0.1437
     12 F         143.0247  142.7076  170.4591 F       1  UNL1       -0.2042
     13 C         143.3867  142.3565  167.9104 C.ar    1  UNL1        0.0253
     14 C         140.0805  143.0478  169.9941 C.3     1  UNL1        0.4207
     15 F         139.1635  143.3084  171.1521 F       1  UNL1       -0.1658
     16 F         140.6222  144.4417  170.1093 F       1  UNL1       -0.1658
     17 F         139.5388  141.6538  169.8788 F       1  UNL1       -0.1658
     18 C         143.8082  138.7506  163.2476 C.3     1  UNL1        0.0730
     19 C         143.7369  138.6339  161.7539 C.3     1  UNL1        0.0294
     20 C         142.6076  137.8827  161.1134 C.3     1  UNL1        0.0666
     21 S         141.1885  138.2829  161.3896 S.3     1  UNL1       -0.0756
     22 C         140.0034  141.8677  162.2894 C.ar    1  UNL1        0.2029
     23 N         140.5054  142.0710  160.8906 N.ar    1  UNL1       -0.1250
     24 N         141.0105  140.7529  160.3833 N.ar    1  UNL1       -0.1220
     25 C         140.8206  139.7350  161.4686 C.ar    1  UNL1        0.1933
     26 N         140.1982  140.4240  162.6466 N.ar    1  UNL1       -0.2860
     27 C         139.8345  139.7820  163.9526 C.3     1  UNL1        0.1341
     28 C         141.4634  144.6346  163.2183 C.3     1  UNL1        0.0556
     29 C         140.0817  144.1947  163.6024 C.ar    1  UNL1        0.1001
     30 N         139.1286  144.9495  164.4810 N.ar    1  UNL1       -0.2085
     31 C         137.8684  144.1442  164.5970 C.ar    1  UNL1        0.2849
     32 O         138.0428  142.8918  163.7902 O.2     1  UNL1       -0.4283
     33 C         139.4107  142.9230  163.1755 C.ar    1  UNL1        0.1964
@<TRIPOS>BOND
     1    28    29    1
     2    29    30   ar
     3    30    31   ar
     4    31    32   ar
     5    32    33   ar
     6    33    22    1
     7    22    23   ar
     8    23    24   ar
     9    24    25   ar
    10    25    21    1
    11    21    20    1
    12    20    19    1
    13    19    18    1
    14    18     1    1
    15     1     2    1
    16     2     3    1
    17     3     4    1
    18     4     5    1
    19     5     7    1
    20     7     8   ar
    21     8     9   ar
    22     9    10   ar
    23    10    14    1
    24    14    15    1
    25    14    16    1
    26    14    17    1
    27    10    11   ar
    28    11    12    1
    29    11    13   ar
    30     5     6    1
    31    25    26   ar
    32    26    27    1
    33    33    29   ar
    34    26    22   ar
    35     6     1    1
    36     5     3    1
    37    13     7   ar
@<TRIPOS>MOLECULE
*****
 33 37 0 0 0
SMALL
GASTEIGER

@<TRIPOS>ATOM
      1 N         139.4039  138.9969  163.6972 N.3     1  UNL1       -0.2724
      2 C         140.2872  137.8321  163.3607 C.3     1  UNL1        0.0724
      3 C         141.4600  137.8545  164.2957 C.3     1  UNL1        0.0214
      4 C         142.4932  138.1325  165.3469 C.3     1  UNL1        0.0072
      5 C         141.3015  139.0330  165.2099 C.3     1  UNL1        0.0350
      6 C         140.0308  139.7390  164.8400 C.3     1  UNL1        0.0761
      7 C         141.6792  139.9635  166.3242 C.ar    1  UNL1       -0.0192
      8 C         141.0552  139.8037  167.6788 C.ar    1  UNL1       -0.0042
      9 C         141.4329  140.7342  168.7931 C.ar    1  UNL1        0.0058
     10 C         142.4347  141.8245  168.5527 C.ar    1  UNL1        0.0988
     11 C         143.0587  141.9843  167.1980 C.ar    1  UNL1        0.1437
     12 F         144.0605  143.0745  166.9576 F       1  UNL1       -0.2042
     13 C         142.6810  141.0538  166.0838 C.ar    1  UNL1        0.0253
     14 C         142.8124  142.7549  169.6669 C.3     1  UNL1        0.4207
     15 F         143.1901  143.6854  170.7812 F       1  UNL1       -0.1658
     16 F         144.1238  142.0424  169.8174 F       1  UNL1       -0.1658
     17 F         141.5011  143.4674  169.5165 F       1  UNL1       -0.1658
     18 C         138.1193  139.3563  163.0112 C.3     1  UNL1        0.0730
     19 C         137.8250  138.8203  161.6415 C.3     1  UNL1        0.0294
     20 C         137.4335  139.7573  160.5375 C.3     1  UNL1        0.0666
     21 S         138.4836  140.5573  159.8252 S.3     1  UNL1       -0.0756
     22 C         140.5021  143.3315  161.6403 C.ar    1  UNL1        0.2029
     23 N         139.2780  144.0906  161.2214 N.ar    1  UNL1       -0.1250
     24 N         138.3730  143.1439  160.4905 N.ar    1  UNL1       -0.1220
     25 C         139.0376  141.7995  160.4576 C.ar    1  UNL1        0.1933
     26 N         140.3534  141.9156  161.1683 N.ar    1  UNL1       -0.2860
     27 C         141.3464  140.8097  161.3712 C.3     1  UNL1        0.1341
     28 C         140.6398  143.8209  164.8638 C.3     1  UNL1        0.0556
     29 C         141.7331  144.1153  163.8798 C.ar    1  UNL1        0.1001
     30 N         143.0815  144.6862  164.2048 N.ar    1  UNL1       -0.2085
     31 C         143.8516  144.8141  162.9239 C.ar    1  UNL1        0.2849
     32 O         142.9791  144.3222  161.8074 O.2     1  UNL1       -0.4283
     33 C         141.6698  143.8903  162.3982 C.ar    1  UNL1        0.1964
@<TRIPOS>BOND
     1    28    29    1
     2    29    30   ar
     3    30    31   ar
     4    31    32   ar
     5    32    33   ar
     6    33    22    1
     7    22    23   ar
     8    23    24   ar
     9    24    25   ar
    10    25    21    1
    11    21    20    1
    12    20    19    1
    13    19    18    1
    14    18     1    1
    15     1     2    1
    16     2     3    1
    17     3     4    1
    18     4     5    1
    19     5     7    1
    20     7     8   ar
    21     8     9   ar
    22     9    10   ar
    23    10    14    1
    24    14    15    1
    25    14    16    1
    26    14    17    1
    27    10    11   ar
    28    11    12    1
    29    11    13   ar
    30     5     6    1
    31    25    26   ar
    32    26    27    1
    33    33    29   ar
    34    26    22   ar
    35     6     1    1
    36     5     3    1
    37    13     7   ar
@<TRIPOS>MOLECULE
*****
 33 37 0 0 0
SMALL
GASTEIGER

@<TRIPOS>ATOM
      1 N         138.2122  141.7821  164.4014 N.3     1  UNL1       -0.2724
      2 C         137.9292  140.5677  163.5677 C.3     1  UNL1        0.0724
      3 C         138.6596  139.4073  164.1759 C.3     1  UNL1        0.0214
      4 C         139.4853  138.4594  164.9941 C.3     1  UNL1        0.0072
      5 C         139.3941  139.9045  165.3855 C.3     1  UNL1        0.0350
      6 C         139.1176  141.3722  165.5249 C.3     1  UNL1        0.0761
      7 C         140.2804  139.7967  166.5908 C.ar    1  UNL1       -0.0192
      8 C         141.7264  139.4325  166.4283 C.ar    1  UNL1       -0.0042
      9 C         142.6128  139.3247  167.6336 C.ar    1  UNL1        0.0058
     10 C         142.0531  139.5812  169.0015 C.ar    1  UNL1        0.0988
     11 C         140.6070  139.9455  169.1640 C.ar    1  UNL1        0.1437
     12 F         140.0474  140.2019  170.5319 F       1  UNL1       -0.2042
     13 C         139.7207  140.0532  167.9587 C.ar    1  UNL1        0.0253
     14 C         142.9394  139.4734  170.2068 C.3     1  UNL1        0.4207
     15 F         143.8257  139.3656  171.4121 F       1  UNL1       -0.1658
     16 F         142.6622  138.0010  170.2790 F       1  UNL1       -0.1658
     17 F         143.2167  140.9458  170.1346 F       1  UNL1       -0.1658
     18 C         137.6829  143.1638  164.1549 C.3     1  UNL1        0.0730
     19 C         138.5153  144.3602  164.5094 C.3     1  UNL1        0.0294
     20 C         139.1286  145.1952  163.4246 C.3     1  UNL1        0.0666
     21 S         140.5893  145.0615  163.1104 S.3     1  UNL1       -0.0756
     22 C         142.1168  141.4965  163.2594 C.ar    1  UNL1        0.2029
     23 N         142.7059  142.1159  164.4919 N.ar    1  UNL1       -0.1250
     24 N         142.2054  143.5268  164.5861 N.ar    1  UNL1       -0.1220
     25 C         141.3070  143.7793  163.4118 C.ar    1  UNL1        0.1933
     26 N         141.2522  142.5244  162.5919 N.ar    1  UNL1       -0.2860
     27 C         140.4701  142.3315  161.3265 C.3     1  UNL1        0.1341
     28 C         144.8143  139.7264  163.7494 C.3     1  UNL1        0.0556
     29 C         143.5910  139.2814  163.0040 C.ar    1  UNL1        0.1001
     30 N         143.3929  137.9446  162.3530 N.ar    1  UNL1       -0.2085
     31 C         142.0305  137.9321  161.7254 C.ar    1  UNL1        0.2849
     32 O         141.3867  139.2610  161.9886 O.2     1  UNL1       -0.4283
     33 C         142.3511  140.0949  162.7788 C.ar    1  UNL1        0.1964
@<TRIPOS>BOND
     1    28    29    1
     2    29    30   ar
     3    30    31   ar
     4    31    32   ar
     5    32    33   ar
     6    33    22    1
     7    22    23   ar
     8    23    24   ar
     9    24    25   ar
    10    25    21    1
    11    21    20    1
    12    20    19    1
    13    19    18    1
    14    18     1    1
    15     1     2    1
    16     2     3    1
    17     3     4    1
    18     4     5    1
    19     5     7    1
    20     7     8   ar
    21     8     9   ar
    22     9    10   ar
    23    10    14    1
    24    14    15    1
    25    14    16    1
    26    14    17    1
    27    10    11   ar
    28    11    12    1
    29    11    13   ar
    30     5     6    1
    31    25    26   ar
    32    26    27    1
    33    33    29   ar
    34    26    22   ar
    35     6     1    1
    36     5     3    1
    37    13     7   ar
@<TRIPOS>MOLECULE
*****
 33 37 0 0 0
SMALL
GASTEIGER

@<TRIPOS>ATOM
      1 N         140.9162  144.5914  162.4802 N.3     1  UNL1       -0.2724
      2 C         139.6085  145.2908  162.7058 C.3     1  UNL1        0.0724
      3 C         139.1326  144.9499  164.0868 C.3     1  UNL1        0.0214
      4 C         138.9208  144.4405  165.4817 C.3     1  UNL1        0.0072
      5 C         140.1461  144.0398  164.7149 C.3     1  UNL1        0.0350
      6 C         141.2484  143.8183  163.7219 C.3     1  UNL1        0.0761
      7 C         140.7346  143.1829  165.7962 C.ar    1  UNL1       -0.0192
      8 C         141.9900  142.4042  165.5363 C.ar    1  UNL1       -0.0042
      9 C         142.5785  141.5472  166.6177 C.ar    1  UNL1        0.0058
     10 C         141.9116  141.4691  167.9590 C.ar    1  UNL1        0.0988
     11 C         140.6562  142.2479  168.2190 C.ar    1  UNL1        0.1437
     12 F         139.9893  142.1698  169.5603 F       1  UNL1       -0.2042
     13 C         140.0677  143.1048  167.1376 C.ar    1  UNL1        0.0253
     14 C         142.5001  140.6122  169.0404 C.3     1  UNL1        0.4207
     15 F         143.0886  139.7553  170.1218 F       1  UNL1       -0.1658
     16 F         143.5408  141.6597  169.3041 F       1  UNL1       -0.1658
     17 F         141.4594  139.5647  168.7767 F       1  UNL1       -0.1658
     18 C         141.7459  144.6542  161.2322 C.3     1  UNL1        0.0730
     19 C         141.1194  145.0736  159.9354 C.3     1  UNL1        0.0294
     20 C         140.0164  144.2531  159.3354 C.3     1  UNL1        0.0666
     21 S         139.9408  142.7808  159.6126 S.3     1  UNL1       -0.0756
     22 C         138.5059  141.0716  162.7882 C.ar    1  UNL1        0.2029
     23 N         137.3506  141.9353  162.3769 N.ar    1  UNL1       -0.1250
     24 N         137.7475  142.6807  161.1373 N.ar    1  UNL1       -0.1220
     25 C         139.1481  142.2777  160.7824 C.ar    1  UNL1        0.1933
     26 N         139.6168  141.2832  161.8028 N.ar    1  UNL1       -0.2860
     27 C         140.9605  140.6172  161.8325 C.3     1  UNL1        0.1341
     28 C         138.6988  137.8152  162.6968 C.3     1  UNL1        0.0556
     29 C         138.6323  138.6601  163.9344 C.ar    1  UNL1        0.1001
     30 N         138.6428  138.1565  165.3473 N.ar    1  UNL1       -0.2085
     31 C         138.5607  139.3420  166.2625 C.ar    1  UNL1        0.2849
     32 O         138.4994  140.5783  165.4154 O.2     1  UNL1       -0.4283
     33 C         138.5437  140.1568  163.9765 C.ar    1  UNL1        0.1964
@<TRIPOS>BOND
     1    28    29    1
     2    29    30   ar
     3    30    31   ar
     4    31    32   ar
     5    32    33   ar
     6    33    22    1
     7    22    23   ar
     8    23    24   ar
     9    24    25   ar
    10    25    21    1
    11    21    20    1
    12    20    19    1
    13    19    18    1
    14    18     1    1
    15     1     2    1
    16     2     3    1
    17     3     4    1
    18     4     5    1
    19     5     7    1
    20     7     8   ar
    21     8     9   ar
    22     9    10   ar
    23    10    14    1
    24    14    15    1
    25    14    16    1
    26    14    17    1
    27    10    11   ar
    28    11    12    1
    29    11    13   ar
    30     5     6    1
    31    25    26   ar
    32    26    27    1
    33    33    29   ar
    34    26    22   ar
    35     6     1    1
    36     5     3    1
    37    13     7   ar
@<TRIPOS>MOLECULE
*****
 33 37 0 0 0
SMALL
GASTEIGER

@<TRIPOS>ATOM
      1 N         141.1578  138.3188  163.3686 N.3     1  UNL1       -0.2724
      2 C         142.6271  138.3288  163.0668 C.3     1  UNL1        0.0724
      3 C         143.3150  139.1215  164.1384 C.3     1  UNL1        0.0214
      4 C         143.7132  139.9483  165.3250 C.3     1  UNL1        0.0072
      5 C         142.2709  139.6015  165.1025 C.3     1  UNL1        0.0350
      6 C         140.9377  139.1054  164.6267 C.3     1  UNL1        0.0761
      7 C         141.7492  140.3156  166.3141 C.ar    1  UNL1       -0.0192
      8 C         142.5056  141.4798  166.8821 C.ar    1  UNL1       -0.0042
      9 C         141.9839  142.1939  168.0937 C.ar    1  UNL1        0.0058
     10 C         140.7059  141.7438  168.7373 C.ar    1  UNL1        0.0988
     11 C         139.9496  140.5795  168.1692 C.ar    1  UNL1        0.1437
     12 F         138.6716  140.1294  168.8128 F       1  UNL1       -0.2042
     13 C         140.4712  139.8655  166.9576 C.ar    1  UNL1        0.0253
     14 C         140.1842  142.4579  169.9488 C.3     1  UNL1        0.4207
     15 F         139.6625  143.1719  171.1604 F       1  UNL1       -0.1658
     16 F         139.9816  143.6985  169.1304 F       1  UNL1       -0.1658
     17 F         140.3868  141.2173  170.7673 F       1  UNL1       -0.1658
     18 C         140.0952  137.6412  162.5551 C.3     1  UNL1        0.0730
     19 C         138.6478  137.9319  162.8206 C.3     1  UNL1        0.0294
     20 C         137.7275  138.2597  161.6824 C.3     1  UNL1        0.0666
     21 S         137.7902  139.6100  161.0322 S.3     1  UNL1       -0.0756
     22 C         139.4019  142.6391  162.8466 C.ar    1  UNL1        0.2029
     23 N         137.9911  142.7166  163.3504 N.ar    1  UNL1       -0.1250
     24 N         137.2157  141.5913  162.7321 N.ar    1  UNL1       -0.1220
     25 C         138.1472  140.8184  161.8461 C.ar    1  UNL1        0.1933
     26 N         139.4983  141.4660  161.9170 N.ar    1  UNL1       -0.2860
     27 C         140.7297  141.0189  161.1863 C.3     1  UNL1        0.1341
     28 C         139.5777  145.8090  162.0910 C.3     1  UNL1        0.0556
     29 C         140.6007  145.0282  162.8617 C.ar    1  UNL1        0.1001
     30 N         141.8841  145.5674  163.4203 N.ar    1  UNL1       -0.2085
     31 C         142.5965  144.4436  164.1129 C.ar    1  UNL1        0.2849
     32 O         141.7534  143.2100  163.9823 O.2     1  UNL1       -0.4283
     33 C         140.5199  143.5713  163.2090 C.ar    1  UNL1        0.1964
@<TRIPOS>BOND
     1    28    29    1
     2    29    30   ar
     3    30    31   ar
     4    31    32   ar
     5    32    33   ar
     6    33    22    1
     7    22    23   ar
     8    23    24   ar
     9    24    25   ar
    10    25    21    1
    11    21    20    1
    12    20    19    1
    13    19    18    1
    14    18     1    1
    15     1     2    1
    16     2     3    1
    17     3     4    1
    18     4     5    1
    19     5     7    1
    20     7     8   ar
    21     8     9   ar
    22     9    10   ar
    23    10    14    1
    24    14    15    1
    25    14    16    1
    26    14    17    1
    27    10    11   ar
    28    11    12    1
    29    11    13   ar
    30     5     6    1
    31    25    26   ar
    32    26    27    1
    33    33    29   ar
    34    26    22   ar
    35     6     1    1
    36     5     3    1
    37    13     7   ar
@<TRIPOS>MOLECULE
*****
 33 37 0 0 0
SMALL
GASTEIGER

@<TRIPOS>ATOM
      1 N         142.9405  143.6008  162.5574 N.3     1  UNL1       -0.2724
      2 C         144.2940  143.2042  162.0469 C.3     1  UNL1        0.0724
      3 C         144.8928  142.2363  163.0240 C.3     1  UNL1        0.0214
      4 C         145.2230  141.3109  164.1573 C.3     1  UNL1        0.0072
      5 C         143.9093  142.0347  164.1385 C.3     1  UNL1        0.0350
      6 C         142.7027  142.8779  163.8501 C.3     1  UNL1        0.0761
      7 C         143.3969  141.4632  165.4272 C.ar    1  UNL1       -0.0192
      8 C         143.1789  139.9849  165.5578 C.ar    1  UNL1       -0.0042
      9 C         142.6665  139.4133  166.8466 C.ar    1  UNL1        0.0058
     10 C         142.3720  140.3201  168.0046 C.ar    1  UNL1        0.0988
     11 C         142.5899  141.7985  167.8739 C.ar    1  UNL1        0.1437
     12 F         142.2954  142.7053  169.0319 F       1  UNL1       -0.2042
     13 C         143.1023  142.3700  166.5852 C.ar    1  UNL1        0.0253
     14 C         141.8595  139.7486  169.2933 C.3     1  UNL1        0.4207
     15 F         141.3471  139.1771  170.5820 F       1  UNL1       -0.1658
     16 F         140.4969  139.5981  168.6847 F       1  UNL1       -0.1658
     17 F         143.2222  139.8991  169.9019 F       1  UNL1       -0.1658
     18 C         141.9914  144.5529  161.8922 C.3     1  UNL1        0.0730
     19 C         141.7626  144.4722  160.4120 C.3     1  UNL1        0.0294
     20 C         140.3646  144.4632  159.8685 C.3     1  UNL1        0.0666
     21 S         139.6387  143.1631  159.6872 S.3     1  UNL1       -0.0756
     22 C         138.6013  141.0060  162.7426 C.ar    1  UNL1        0.2029
     23 N         137.4143  141.9136  162.6122 N.ar    1  UNL1       -0.1250
     24 N         137.6584  142.8321  161.4518 N.ar    1  UNL1       -0.1220
     25 C         138.9963  142.4922  160.8650 C.ar    1  UNL1        0.1933
     26 N         139.5791  141.3635  161.6628 N.ar    1  UNL1       -0.2860
     27 C         140.9066  140.7076  161.4228 C.3     1  UNL1        0.1341
     28 C         139.5158  141.4501  165.8437 C.3     1  UNL1        0.0556
     29 C         139.1996  140.1338  165.1975 C.ar    1  UNL1        0.1001
     30 N         139.2484  138.7906  165.8634 N.ar    1  UNL1       -0.2085
     31 C         138.8582  137.7563  164.8495 C.ar    1  UNL1        0.2849
     32 O         138.5683  138.4602  163.5571 O.2     1  UNL1       -0.4283
     33 C         138.7794  139.9296  163.7722 C.ar    1  UNL1        0.1964
@<TRIPOS>BOND
     1    28    29    1
     2    29    30   ar
     3    30    31   ar
     4    31    32   ar
     5    32    33   ar
     6    33    22    1
     7    22    23   ar
     8    23    24   ar
     9    24    25   ar
    10    25    21    1
    11    21    20    1
    12    20    19    1
    13    19    18    1
    14    18     1    1
    15     1     2    1
    16     2     3    1
    17     3     4    1
    18     4     5    1
    19     5     7    1
    20     7     8   ar
    21     8     9   ar
    22     9    10   ar
    23    10    14    1
    24    14    15    1
    25    14    16    1
    26    14    17    1
    27    10    11   ar
    28    11    12    1
    29    11    13   ar
    30     5     6    1
    31    25    26   ar
    32    26    27    1
    33    33    29   ar
    34    26    22   ar
    35     6     1    1
    36     5     3    1
    37    13     7   ar
@<TRIPOS>MOLECULE
*****
 33 37 0 0 0
SMALL
GASTEIGER

@<TRIPOS>ATOM
      1 N         140.3241  138.4044  163.2775 N.3     1  UNL1       -0.2724
      2 C         139.1134  137.5678  163.5680 C.3     1  UNL1        0.0724
      3 C         138.5673  137.9895  164.8999 C.3     1  UNL1        0.0214
      4 C         138.2609  138.6134  166.2291 C.3     1  UNL1        0.0072
      5 C         139.4405  139.0867  165.4326 C.3     1  UNL1        0.0350
      6 C         140.5262  139.3431  164.4298 C.3     1  UNL1        0.0761
      7 C         139.8892  140.1244  166.4183 C.ar    1  UNL1       -0.0192
      8 C         140.7124  141.2905  165.9573 C.ar    1  UNL1       -0.0042
      9 C         141.1612  142.3283  166.9431 C.ar    1  UNL1        0.0058
     10 C         140.7867  142.1999  168.3899 C.ar    1  UNL1        0.0988
     11 C         139.9635  141.0337  168.8510 C.ar    1  UNL1        0.1437
     12 F         139.5890  140.9054  170.2978 F       1  UNL1       -0.2042
     13 C         139.5147  139.9960  167.8652 C.ar    1  UNL1        0.0253
     14 C         141.2355  143.2376  169.3757 C.3     1  UNL1        0.4207
     15 F         141.6842  144.2753  170.3615 F       1  UNL1       -0.1658
     16 F         139.9841  144.0234  169.1181 F       1  UNL1       -0.1658
     17 F         142.4869  142.4517  169.6333 F       1  UNL1       -0.1658
     18 C         141.1820  138.3174  162.0501 C.3     1  UNL1        0.0730
     19 C         142.5855  137.7979  162.1513 C.3     1  UNL1        0.0294
     20 C         143.6858  138.6981  162.6298 C.3     1  UNL1        0.0666
     21 S         143.9411  140.0040  161.9371 S.3     1  UNL1       -0.0756
     22 C         141.8424  143.1877  162.6613 C.ar    1  UNL1        0.2029
     23 N         142.8039  143.2062  163.8125 N.ar    1  UNL1       -0.1250
     24 N         143.7070  142.0159  163.6814 N.ar    1  UNL1       -0.1220
     25 C         143.3038  141.2616  162.4491 C.ar    1  UNL1        0.1933
     26 N         142.1514  141.9859  161.8187 N.ar    1  UNL1       -0.2860
     27 C         141.4339  141.5795  160.5656 C.3     1  UNL1        0.1341
     28 C         138.6605  142.7877  163.2659 C.3     1  UNL1        0.0556
     29 C         139.2992  144.0105  162.6767 C.ar    1  UNL1        0.1001
     30 N         138.5874  145.2640  162.2621 N.ar    1  UNL1       -0.2085
     31 C         139.6101  146.2226  161.7279 C.ar    1  UNL1        0.2849
     32 O         140.9538  145.5615  161.8124 O.2     1  UNL1       -0.4283
     33 C         140.7617  144.1943  162.3989 C.ar    1  UNL1        0.1964
@<TRIPOS>BOND
     1    28    29    1
     2    29    30   ar
     3    30    31   ar
     4    31    32   ar
     5    32    33   ar
     6    33    22    1
     7    22    23   ar
     8    23    24   ar
     9    24    25   ar
    10    25    21    1
    11    21    20    1
    12    20    19    1
    13    19    18    1
    14    18     1    1
    15     1     2    1
    16     2     3    1
    17     3     4    1
    18     4     5    1
    19     5     7    1
    20     7     8   ar
    21     8     9   ar
    22     9    10   ar
    23    10    14    1
    24    14    15    1
    25    14    16    1
    26    14    17    1
    27    10    11   ar
    28    11    12    1
    29    11    13   ar
    30     5     6    1
    31    25    26   ar
    32    26    27    1
    33    33    29   ar
    34    26    22   ar
    35     6     1    1
    36     5     3    1
    37    13     7   ar
