@<TRIPOS>MOLECULE
*****
 45 48 0 0 0
SMALL
GASTEIGER

@<TRIPOS>ATOM
      1 C         140.1320  143.7919  160.3369 C.ar    1  UNL1        0.1737
      2 C         141.4752  143.4654  159.7545 C.ar    1  UNL1        0.0593
      3 C         141.9077  142.0352  159.6220 C.ar    1  UNL1        0.0890
      4 N         143.2509  141.7088  159.0396 N.ar    1  UNL1       -0.2238
      5 C         143.6834  140.2786  158.9072 C.ar    1  UNL1        0.2000
      6 N         142.7726  139.1749  159.3572 N.ar    1  UNL1       -0.2089
      7 C         141.4295  139.5014  159.9396 C.ar    1  UNL1        0.1364
      8 C         140.9970  140.9315  160.0720 C.ar    1  UNL1        0.0527
      9 C         139.6537  141.2581  160.6544 C.ar    1  UNL1        0.0443
     10 C         139.2213  142.6882  160.7868 C.ar    1  UNL1        0.1726
     11 N         140.5187  138.3977  160.3895 N.pl3   1  UNL1       -0.2837
     12 H         139.9815  137.9028  159.7294 H       1  UNL1        0.1550
     13 C         140.4265  138.0480  161.8452 C.ar    1  UNL1        0.1276
     14 C         139.2929  138.3933  162.7649 C.ar    1  UNL1        0.0507
     15 C         139.6175  137.8502  164.1250 C.ar    1  UNL1        0.0903
     16 N         140.9517  137.1693  164.0459 N.ar    1  UNL1       -0.1755
     17 N         141.4517  137.2915  162.6370 N.ar    1  UNL1       -0.2631
     18 H         142.3033  136.9374  162.2924 H       1  UNL1        0.1903
     19 C         138.7587  137.9675  165.3492 C.3     1  UNL1        0.1328
     20 C         139.2117  138.8088  166.5054 C.2     1  UNL1        0.2323
     21 O         138.3225  138.9816  167.7010 O.2     1  UNL1       -0.2744
     22 N         140.5539  139.4774  166.4660 N.am    1  UNL1       -0.2818
     23 H         141.1375  139.3639  165.6812 H       1  UNL1        0.1549
     24 C         141.0069  140.3187  167.6222 C.ar    1  UNL1        0.0804
     25 C         141.9764  139.7605  168.6215 C.ar    1  UNL1        0.0171
     26 C         142.4295  140.6019  169.7778 C.ar    1  UNL1        0.0037
     27 C         141.9131  142.0015  169.9347 C.ar    1  UNL1        0.0321
     28 C         140.9436  142.5596  168.9354 C.ar    1  UNL1        0.1686
     29 F         140.4272  143.9591  169.0923 F       1  UNL1       -0.2018
     30 C         140.4906  141.7182  167.7791 C.ar    1  UNL1        0.1807
     31 F         139.5212  142.2764  166.7799 F       1  UNL1       -0.2005
     32 O         137.8780  143.0147  161.3692 O.3     1  UNL1       -0.4684
     33 C         137.6408  142.8574  162.8420 C.3     1  UNL1        0.2526
     34 O         139.6994  145.2221  160.4693 O.3     1  UNL1       -0.4723
     35 C         139.6619  145.8722  161.8206 C.3     1  UNL1        0.2070
     36 C         140.7948  145.6689  162.7824 C.3     1  UNL1        0.0646
     37 C         140.7618  144.5219  163.7485 C.3     1  UNL1        0.0760
     38 N         141.7326  143.3881  163.6001 N.3     1  UNL1       -0.2705
     39 C         143.1410  143.6593  163.1609 C.3     1  UNL1        0.0722
     40 C         144.4548  143.4558  165.3931 C.3     1  UNL1        0.0015
     41 C         144.1377  144.2112  164.1366 C.3     1  UNL1        0.0173
     42 C         141.2950  141.9831  163.8910 C.3     1  UNL1        0.1042
     43 C         142.1484  140.8273  163.4598 C.3     1  UNL1        0.1544
     44 O         142.5331  139.7686  164.4502 O.3     1  UNL1       -0.3805
     45 H         143.1114  140.1538  165.1270 H       1  UNL1        0.2105
@<TRIPOS>BOND
     1    40    41    1
     2    41    39    1
     3    39    38    1
     4    38    42    1
     5    42    43    1
     6    43    44    1
     7    38    37    1
     8    37    36    1
     9    36    35    1
    10    35    34    1
    11    34     1    1
    12     1     2   ar
    13     2     3   ar
    14     3     4   ar
    15     4     5   ar
    16     5     6   ar
    17     6     7   ar
    18     7    11    1
    19    11    13    1
    20    13    14   ar
    21    14    15   ar
    22    15    19    1
    23    19    20    1
    24    20    21    2
    25    20    22   am
    26    22    24    1
    27    24    25   ar
    28    25    26   ar
    29    26    27   ar
    30    27    28   ar
    31    28    29    1
    32    28    30   ar
    33    30    31    1
    34    15    16   ar
    35    16    17   ar
    36     7     8   ar
    37     8     9   ar
    38     9    10   ar
    39    10    32    1
    40    32    33    1
    41    10     1   ar
    42     8     3   ar
    43    17    13   ar
    44    30    24   ar
    45    44    45    1
    46    11    12    1
    47    22    23    1
    48    17    18    1
@<TRIPOS>MOLECULE
*****
 45 48 0 0 0
SMALL
GASTEIGER

@<TRIPOS>ATOM
      1 C         144.3066  140.3722  163.8148 C.ar    1  UNL1        0.1737
      2 C         144.2416  139.7747  162.4405 C.ar    1  UNL1        0.0593
      3 C         143.7808  140.6079  161.2814 C.ar    1  UNL1        0.0890
      4 N         143.7159  140.0103  159.9071 N.ar    1  UNL1       -0.2238
      5 C         143.2551  140.8435  158.7481 C.ar    1  UNL1        0.2000
      6 N         142.8593  142.2743  158.9633 N.ar    1  UNL1       -0.2089
      7 C         142.9243  142.8718  160.3376 C.ar    1  UNL1        0.1364
      8 C         143.3851  142.0386  161.4966 C.ar    1  UNL1        0.0527
      9 C         143.4501  142.6362  162.8710 C.ar    1  UNL1        0.0443
     10 C         143.9108  141.8030  164.0300 C.ar    1  UNL1        0.1726
     11 N         142.5285  144.3026  160.5528 N.pl3   1  UNL1       -0.2837
     12 H         143.1458  145.0272  160.3016 H       1  UNL1        0.1550
     13 C         141.1923  144.6293  161.1508 C.ar    1  UNL1        0.1276
     14 C         140.2813  143.6663  161.8528 C.ar    1  UNL1        0.0507
     15 C         139.0582  144.4183  162.2876 C.ar    1  UNL1        0.0903
     16 N         139.2135  145.8460  161.8543 N.ar    1  UNL1       -0.1755
     17 N         140.5323  145.9764  161.1517 N.ar    1  UNL1       -0.2631
     18 H         140.9002  146.8013  160.7600 H       1  UNL1        0.1903
     19 C         137.8860  143.8435  163.0261 C.3     1  UNL1        0.1328
     20 C         137.8595  142.3841  163.3715 C.2     1  UNL1        0.2323
     21 O         136.8541  141.4783  162.7244 O.2     1  UNL1       -0.2744
     22 N         138.8384  141.8305  164.3641 N.am    1  UNL1       -0.2818
     23 H         139.4983  142.4250  164.7888 H       1  UNL1        0.1549
     24 C         138.8120  140.3710  164.7096 C.ar    1  UNL1        0.0804
     25 C         138.1060  139.9063  165.9489 C.ar    1  UNL1        0.0171
     26 C         138.0795  138.4469  166.2944 C.ar    1  UNL1        0.0037
     27 C         138.7591  137.4521  165.4006 C.ar    1  UNL1        0.0321
     28 C         139.4651  137.9169  164.1614 C.ar    1  UNL1        0.1686
     29 F         140.1446  136.9221  163.2677 F       1  UNL1       -0.2018
     30 C         139.4915  139.3763  163.8159 C.ar    1  UNL1        0.1807
     31 F         140.1975  139.8410  162.5767 F       1  UNL1       -0.2005
     32 O         143.9758  142.4005  165.4044 O.3     1  UNL1       -0.4684
     33 C         144.7392  143.6710  165.6345 C.3     1  UNL1        0.2526
     34 O         144.7674  139.5390  164.9739 O.3     1  UNL1       -0.4723
     35 C         143.7619  138.8638  165.8589 C.3     1  UNL1        0.2070
     36 C         142.3695  139.4114  165.9659 C.3     1  UNL1        0.0646
     37 C         141.6456  139.3686  167.2789 C.3     1  UNL1        0.0760
     38 N         141.6860  140.5544  168.1967 N.3     1  UNL1       -0.2705
     39 C         140.5998  141.5871  168.1360 C.3     1  UNL1        0.0722
     40 C         140.0909  143.1116  170.1772 C.3     1  UNL1        0.0015
     41 C         140.7654  142.8929  168.8555 C.3     1  UNL1        0.0173
     42 C         142.8126  140.7074  169.1751 C.3     1  UNL1        0.1042
     43 C         142.7609  139.9977  170.4956 C.3     1  UNL1        0.1544
     44 O         142.3104  140.7311  171.7240 O.3     1  UNL1       -0.3805
     45 H         142.9516  141.4266  171.9386 H       1  UNL1        0.2105
@<TRIPOS>BOND
     1    40    41    1
     2    41    39    1
     3    39    38    1
     4    38    42    1
     5    42    43    1
     6    43    44    1
     7    38    37    1
     8    37    36    1
     9    36    35    1
    10    35    34    1
    11    34     1    1
    12     1     2   ar
    13     2     3   ar
    14     3     4   ar
    15     4     5   ar
    16     5     6   ar
    17     6     7   ar
    18     7    11    1
    19    11    13    1
    20    13    14   ar
    21    14    15   ar
    22    15    19    1
    23    19    20    1
    24    20    21    2
    25    20    22   am
    26    22    24    1
    27    24    25   ar
    28    25    26   ar
    29    26    27   ar
    30    27    28   ar
    31    28    29    1
    32    28    30   ar
    33    30    31    1
    34    15    16   ar
    35    16    17   ar
    36     7     8   ar
    37     8     9   ar
    38     9    10   ar
    39    10    32    1
    40    32    33    1
    41    10     1   ar
    42     8     3   ar
    43    17    13   ar
    44    30    24   ar
    45    44    45    1
    46    11    12    1
    47    22    23    1
    48    17    18    1
@<TRIPOS>MOLECULE
*****
 45 48 0 0 0
SMALL
GASTEIGER

@<TRIPOS>ATOM
      1 C         143.9024  140.4075  161.7890 C.ar    1  UNL1        0.1737
      2 C         143.3059  140.4557  160.4135 C.ar    1  UNL1        0.0593
      3 C         141.9971  139.7760  160.1393 C.ar    1  UNL1        0.0890
      4 N         141.4006  139.8243  158.7639 N.ar    1  UNL1       -0.2238
      5 C         140.0918  139.1446  158.4898 C.ar    1  UNL1        0.2000
      6 N         139.3795  138.4168  159.5911 N.ar    1  UNL1       -0.2089
      7 C         139.9760  138.3686  160.9665 C.ar    1  UNL1        0.1364
      8 C         141.2847  139.0482  161.2406 C.ar    1  UNL1        0.0527
      9 C         141.8813  139.0000  162.6161 C.ar    1  UNL1        0.0443
     10 C         143.1900  139.6796  162.8903 C.ar    1  UNL1        0.1726
     11 N         139.2637  137.6407  162.0678 N.pl3   1  UNL1       -0.2837
     12 H         139.0780  136.6777  161.9817 H       1  UNL1        0.1550
     13 C         138.8342  138.3801  163.3002 C.ar    1  UNL1        0.1276
     14 C         138.8108  137.8297  164.6954 C.ar    1  UNL1        0.0507
     15 C         138.3148  138.9092  165.6113 C.ar    1  UNL1        0.0903
     16 N         138.0317  140.1268  164.7821 N.ar    1  UNL1       -0.1755
     17 N         138.3527  139.7998  163.3538 N.ar    1  UNL1       -0.2631
     18 H         138.2631  140.4098  162.5863 H       1  UNL1        0.1903
     19 C         138.1337  138.7918  167.0957 C.3     1  UNL1        0.1328
     20 C         138.8979  139.6944  168.0182 C.2     1  UNL1        0.2323
     21 O         138.5597  139.7339  169.4791 O.2     1  UNL1       -0.2744
     22 N         140.0003  140.5575  167.4799 N.am    1  UNL1       -0.2818
     23 H         140.2222  140.5316  166.5211 H       1  UNL1        0.1549
     24 C         140.7645  141.4602  168.4025 C.ar    1  UNL1        0.0804
     25 C         140.1520  142.7472  168.8701 C.ar    1  UNL1        0.0171
     26 C         140.9162  143.6499  169.7927 C.ar    1  UNL1        0.0037
     27 C         142.2930  143.2656  170.2477 C.ar    1  UNL1        0.0321
     28 C         142.9055  141.9786  169.7800 C.ar    1  UNL1        0.1686
     29 F         144.2822  141.5944  170.2349 F       1  UNL1       -0.2018
     30 C         142.1412  141.0760  168.8574 C.ar    1  UNL1        0.1807
     31 F         142.7537  139.7891  168.3898 F       1  UNL1       -0.2005
     32 O         143.7866  139.6314  164.2658 O.3     1  UNL1       -0.4684
     33 C         143.1830  138.7448  165.3144 C.3     1  UNL1        0.2526
     34 O         145.2112  141.0871  162.0632 O.3     1  UNL1       -0.4723
     35 C         145.2443  142.3566  162.8616 C.3     1  UNL1        0.2070
     36 C         144.5182  143.5725  162.3674 C.3     1  UNL1        0.0646
     37 C         143.1896  143.9438  162.9565 C.3     1  UNL1        0.0760
     38 N         141.9226  143.5532  162.2550 N.3     1  UNL1       -0.2705
     39 C         141.5303  144.2373  160.9790 C.3     1  UNL1        0.0722
     40 C         140.1288  146.1171  162.0982 C.3     1  UNL1        0.0015
     41 C         140.3546  145.1687  160.9582 C.3     1  UNL1        0.0173
     42 C         141.0479  142.4784  162.8294 C.3     1  UNL1        0.1042
     43 C         140.9253  142.3263  164.3165 C.3     1  UNL1        0.1544
     44 O         139.6397  142.6808  165.0032 O.3     1  UNL1       -0.3805
     45 H         139.4834  143.6349  164.9242 H       1  UNL1        0.2105
@<TRIPOS>BOND
     1    40    41    1
     2    41    39    1
     3    39    38    1
     4    38    42    1
     5    42    43    1
     6    43    44    1
     7    38    37    1
     8    37    36    1
     9    36    35    1
    10    35    34    1
    11    34     1    1
    12     1     2   ar
    13     2     3   ar
    14     3     4   ar
    15     4     5   ar
    16     5     6   ar
    17     6     7   ar
    18     7    11    1
    19    11    13    1
    20    13    14   ar
    21    14    15   ar
    22    15    19    1
    23    19    20    1
    24    20    21    2
    25    20    22   am
    26    22    24    1
    27    24    25   ar
    28    25    26   ar
    29    26    27   ar
    30    27    28   ar
    31    28    29    1
    32    28    30   ar
    33    30    31    1
    34    15    16   ar
    35    16    17   ar
    36     7     8   ar
    37     8     9   ar
    38     9    10   ar
    39    10    32    1
    40    32    33    1
    41    10     1   ar
    42     8     3   ar
    43    17    13   ar
    44    30    24   ar
    45    44    45    1
    46    11    12    1
    47    22    23    1
    48    17    18    1
@<TRIPOS>MOLECULE
*****
 45 48 0 0 0
SMALL
GASTEIGER

@<TRIPOS>ATOM
      1 C         142.4222  143.6435  159.4928 C.ar    1  UNL1        0.1737
      2 C         141.9868  142.7062  158.4057 C.ar    1  UNL1        0.0593
      3 C         142.3890  141.2619  158.4550 C.ar    1  UNL1        0.0890
      4 N         141.9536  140.3246  157.3679 N.ar    1  UNL1       -0.2238
      5 C         142.3559  138.8805  157.4172 C.ar    1  UNL1        0.2000
      6 N         143.1936  138.3736  158.5535 N.ar    1  UNL1       -0.2089
      7 C         143.6290  139.3109  159.6406 C.ar    1  UNL1        0.1364
      8 C         143.2267  140.7551  159.5913 C.ar    1  UNL1        0.0527
      9 C         143.6622  141.6925  160.6785 C.ar    1  UNL1        0.0443
     10 C         143.2599  143.1366  160.6292 C.ar    1  UNL1        0.1726
     11 N         144.4667  138.8040  160.7770 N.pl3   1  UNL1       -0.2837
     12 H         145.4292  138.6440  160.6458 H       1  UNL1        0.1550
     13 C         143.8379  138.5409  162.1132 C.ar    1  UNL1        0.1276
     14 C         144.3486  139.0238  163.4383 C.ar    1  UNL1        0.0507
     15 C         143.4143  138.5300  164.5030 C.ar    1  UNL1        0.0903
     16 N         142.3262  137.7419  163.8358 N.ar    1  UNL1       -0.1755
     17 N         142.5881  137.7486  162.3588 N.ar    1  UNL1       -0.2631
     18 H         142.0365  137.3100  161.6713 H       1  UNL1        0.1903
     19 C         143.5451  138.7804  165.9762 C.3     1  UNL1        0.1328
     20 C         142.5357  139.6345  166.6843 C.2     1  UNL1        0.2323
     21 O         141.4313  140.2894  165.9087 O.2     1  UNL1       -0.2744
     22 N         142.6307  139.8338  168.1679 N.am    1  UNL1       -0.2818
     23 H         143.3555  139.4040  168.6769 H       1  UNL1        0.1549
     24 C         141.6212  140.6880  168.8760 C.ar    1  UNL1        0.0804
     25 C         140.3179  140.0946  169.3226 C.ar    1  UNL1        0.0171
     26 C         139.3084  140.9488  170.0307 C.ar    1  UNL1        0.0037
     27 C         139.6024  142.3964  170.2923 C.ar    1  UNL1        0.0321
     28 C         140.9057  142.9897  169.8458 C.ar    1  UNL1        0.1686
     29 F         141.1995  144.4371  170.1073 F       1  UNL1       -0.2018
     30 C         141.9151  142.1355  169.1376 C.ar    1  UNL1        0.1807
     31 F         143.2183  142.7288  168.6911 F       1  UNL1       -0.2005
     32 O         143.6954  144.0740  161.7163 O.3     1  UNL1       -0.4684
     33 C         144.2995  143.5311  162.9773 C.3     1  UNL1        0.2526
     34 O         142.0200  145.0878  159.4436 O.3     1  UNL1       -0.4723
     35 C         140.5780  145.4704  159.5995 C.3     1  UNL1        0.2070
     36 C         140.0699  145.9558  160.9247 C.3     1  UNL1        0.0646
     37 C         140.5520  145.3159  162.1928 C.3     1  UNL1        0.0760
     38 N         139.8487  144.1083  162.7379 N.3     1  UNL1       -0.2705
     39 C         138.3566  144.1151  162.8917 C.3     1  UNL1        0.0722
     40 C         137.2421  141.9992  163.9071 C.3     1  UNL1        0.0015
     41 C         137.7193  143.4136  164.0545 C.3     1  UNL1        0.0173
     42 C         140.6375  142.8939  163.1293 C.3     1  UNL1        0.1042
     43 C         140.4405  141.6022  162.3928 C.3     1  UNL1        0.1544
     44 O         140.9796  140.3239  162.9631 O.3     1  UNL1       -0.3805
     45 H         141.9490  140.3583  162.9741 H       1  UNL1        0.2105
@<TRIPOS>BOND
     1    40    41    1
     2    41    39    1
     3    39    38    1
     4    38    42    1
     5    42    43    1
     6    43    44    1
     7    38    37    1
     8    37    36    1
     9    36    35    1
    10    35    34    1
    11    34     1    1
    12     1     2   ar
    13     2     3   ar
    14     3     4   ar
    15     4     5   ar
    16     5     6   ar
    17     6     7   ar
    18     7    11    1
    19    11    13    1
    20    13    14   ar
    21    14    15   ar
    22    15    19    1
    23    19    20    1
    24    20    21    2
    25    20    22   am
    26    22    24    1
    27    24    25   ar
    28    25    26   ar
    29    26    27   ar
    30    27    28   ar
    31    28    29    1
    32    28    30   ar
    33    30    31    1
    34    15    16   ar
    35    16    17   ar
    36     7     8   ar
    37     8     9   ar
    38     9    10   ar
    39    10    32    1
    40    32    33    1
    41    10     1   ar
    42     8     3   ar
    43    17    13   ar
    44    30    24   ar
    45    44    45    1
    46    11    12    1
    47    22    23    1
    48    17    18    1
@<TRIPOS>MOLECULE
*****
 45 48 0 0 0
SMALL
GASTEIGER

@<TRIPOS>ATOM
      1 C         143.8651  140.1463  160.2450 C.ar    1  UNL1        0.1737
      2 C         143.2613  140.3328  158.8847 C.ar    1  UNL1        0.0593
      3 C         142.6195  141.6391  158.5216 C.ar    1  UNL1        0.0890
      4 N         142.0158  141.8257  157.1613 N.ar    1  UNL1       -0.2238
      5 C         141.3740  143.1319  156.7983 C.ar    1  UNL1        0.2000
      6 N         141.3361  144.2517  157.7957 N.ar    1  UNL1       -0.2089
      7 C         141.9398  144.0651  159.1560 C.ar    1  UNL1        0.1364
      8 C         142.5816  142.7589  159.5190 C.ar    1  UNL1        0.0527
      9 C         143.1854  142.5723  160.8794 C.ar    1  UNL1        0.0443
     10 C         143.8271  141.2660  161.2424 C.ar    1  UNL1        0.1726
     11 N         141.9018  145.1849  160.1534 N.pl3   1  UNL1       -0.2837
     12 H         142.5875  145.8909  160.1272 H       1  UNL1        0.1550
     13 C         140.8193  145.2289  161.1907 C.ar    1  UNL1        0.1276
     14 C         140.9048  144.6667  162.5788 C.ar    1  UNL1        0.0507
     15 C         139.5994  144.9332  163.2681 C.ar    1  UNL1        0.0903
     16 N         138.7071  145.6601  162.3060 N.ar    1  UNL1       -0.1755
     17 N         139.4610  145.8428  161.0222 N.ar    1  UNL1       -0.2631
     18 H         139.1236  146.2876  160.2113 H       1  UNL1        0.1903
     19 C         139.2480  144.5416  164.6728 C.3     1  UNL1        0.1328
     20 C         139.7299  143.2350  165.2299 C.2     1  UNL1        0.2323
     21 O         138.8322  142.0334  165.2078 O.2     1  UNL1       -0.2744
     22 N         141.1096  143.1300  165.8092 N.am    1  UNL1       -0.2818
     23 H         141.6987  143.9186  165.8237 H       1  UNL1        0.1549
     24 C         141.5916  141.8234  166.3664 C.ar    1  UNL1        0.0804
     25 C         142.5654  140.9895  165.5876 C.ar    1  UNL1        0.0171
     26 C         143.0474  139.6828  166.1448 C.ar    1  UNL1        0.0037
     27 C         142.5556  139.2101  167.4808 C.ar    1  UNL1        0.0321
     28 C         141.5818  140.0440  168.2595 C.ar    1  UNL1        0.1686
     29 F         141.0901  139.5713  169.5954 F       1  UNL1       -0.2018
     30 C         141.0998  141.3506  167.7023 C.ar    1  UNL1        0.1807
     31 F         140.1261  142.1845  168.4811 F       1  UNL1       -0.2005
     32 O         144.4309  141.0794  162.6029 O.3     1  UNL1       -0.4684
     33 C         145.6369  141.8762  163.0038 C.3     1  UNL1        0.2526
     34 O         144.5069  138.8400  160.6081 O.3     1  UNL1       -0.4723
     35 C         143.6947  137.7614  161.2617 C.3     1  UNL1        0.2070
     36 C         142.7908  138.0955  162.4111 C.3     1  UNL1        0.0646
     37 C         141.3995  137.5368  162.4580 C.3     1  UNL1        0.0760
     38 N         140.2190  138.4511  162.3151 N.3     1  UNL1       -0.2705
     39 C         140.3084  139.6587  161.4299 C.3     1  UNL1        0.0722
     40 C         138.7668  141.7390  161.6442 C.3     1  UNL1        0.0015
     41 C         140.0378  141.0227  161.9925 C.3     1  UNL1        0.0173
     42 C         138.9489  138.1577  163.0575 C.3     1  UNL1        0.1042
     43 C         138.9692  138.0123  164.5502 C.3     1  UNL1        0.1544
     44 O         139.4157  139.1580  165.4093 O.3     1  UNL1       -0.3805
     45 H         140.3563  139.3338  165.2505 H       1  UNL1        0.2105
@<TRIPOS>BOND
     1    40    41    1
     2    41    39    1
     3    39    38    1
     4    38    42    1
     5    42    43    1
     6    43    44    1
     7    38    37    1
     8    37    36    1
     9    36    35    1
    10    35    34    1
    11    34     1    1
    12     1     2   ar
    13     2     3   ar
    14     3     4   ar
    15     4     5   ar
    16     5     6   ar
    17     6     7   ar
    18     7    11    1
    19    11    13    1
    20    13    14   ar
    21    14    15   ar
    22    15    19    1
    23    19    20    1
    24    20    21    2
    25    20    22   am
    26    22    24    1
    27    24    25   ar
    28    25    26   ar
    29    26    27   ar
    30    27    28   ar
    31    28    29    1
    32    28    30   ar
    33    30    31    1
    34    15    16   ar
    35    16    17   ar
    36     7     8   ar
    37     8     9   ar
    38     9    10   ar
    39    10    32    1
    40    32    33    1
    41    10     1   ar
    42     8     3   ar
    43    17    13   ar
    44    30    24   ar
    45    44    45    1
    46    11    12    1
    47    22    23    1
    48    17    18    1
@<TRIPOS>MOLECULE
*****
 45 48 0 0 0
SMALL
GASTEIGER

@<TRIPOS>ATOM
      1 C         143.3346  142.2057  161.6018 C.ar    1  UNL1        0.1737
      2 C         142.3646  142.5983  160.5272 C.ar    1  UNL1        0.0593
      3 C         141.2783  141.6498  160.1144 C.ar    1  UNL1        0.0890
      4 N         140.3082  142.0423  159.0398 N.ar    1  UNL1       -0.2238
      5 C         139.2220  141.0938  158.6271 C.ar    1  UNL1        0.2000
      6 N         139.1057  139.7528  159.2890 N.ar    1  UNL1       -0.2089
      7 C         140.0758  139.3603  160.3636 C.ar    1  UNL1        0.1364
      8 C         141.1620  140.3087  160.7764 C.ar    1  UNL1        0.0527
      9 C         142.1322  139.9162  161.8510 C.ar    1  UNL1        0.0443
     10 C         143.2184  140.8647  162.2638 C.ar    1  UNL1        0.1726
     11 N         139.9596  138.0192  161.0256 N.pl3   1  UNL1       -0.2837
     12 H         139.9266  137.2014  160.4785 H       1  UNL1        0.1550
     13 C         139.8935  137.9242  162.5211 C.ar    1  UNL1        0.1276
     14 C         138.8361  138.5280  163.3971 C.ar    1  UNL1        0.0507
     15 C         139.1623  138.1857  164.8207 C.ar    1  UNL1        0.0903
     16 N         140.4214  137.3703  164.8244 N.ar    1  UNL1       -0.1755
     17 N         140.8733  137.2087  163.4033 N.ar    1  UNL1       -0.2631
     18 H         141.6726  136.7191  163.1023 H       1  UNL1        0.1903
     19 C         138.3688  138.5880  166.0283 C.3     1  UNL1        0.1328
     20 C         139.0064  139.4191  167.1019 C.2     1  UNL1        0.2323
     21 O         138.4520  139.3977  168.4956 O.2     1  UNL1       -0.2744
     22 N         140.1985  140.2715  166.7819 N.am    1  UNL1       -0.2818
     23 H         140.5623  140.2855  165.8672 H       1  UNL1        0.1549
     24 C         140.8361  141.1026  167.8555 C.ar    1  UNL1        0.0804
     25 C         140.2622  142.4434  168.2063 C.ar    1  UNL1        0.0171
     26 C         140.8998  143.2746  169.2800 C.ar    1  UNL1        0.0037
     27 C         142.1114  142.7649  170.0028 C.ar    1  UNL1        0.0321
     28 C         142.6853  141.4241  169.6520 C.ar    1  UNL1        0.1686
     29 F         143.8968  140.9145  170.3748 F       1  UNL1       -0.2018
     30 C         142.0476  140.5930  168.5783 C.ar    1  UNL1        0.1807
     31 F         142.6215  139.2523  168.2276 F       1  UNL1       -0.2005
     32 O         144.1885  140.4722  163.3384 O.3     1  UNL1       -0.4684
     33 C         143.7271  139.6397  164.4978 C.3     1  UNL1        0.2526
     34 O         144.4210  143.1542  162.0146 O.3     1  UNL1       -0.4723
     35 C         144.0683  144.4947  162.5881 C.3     1  UNL1        0.2070
     36 C         143.2686  144.5819  163.8541 C.3     1  UNL1        0.0646
     37 C         141.8474  145.0597  163.8121 C.3     1  UNL1        0.0760
     38 N         140.7577  144.1334  163.3600 N.3     1  UNL1       -0.2705
     39 C         140.5217  142.8422  164.0860 C.3     1  UNL1        0.0722
     40 C         138.0515  142.2338  164.6133 C.3     1  UNL1        0.0015
     41 C         139.2929  142.0323  163.7958 C.3     1  UNL1        0.0173
     42 C         139.9040  144.4983  162.1818 C.3     1  UNL1        0.1042
     43 C         140.1607  145.7741  161.4360 C.3     1  UNL1        0.1544
     44 O         139.0553  146.7713  161.2529 O.3     1  UNL1       -0.3805
     45 H         138.3653  146.3891  160.6882 H       1  UNL1        0.2105
@<TRIPOS>BOND
     1    40    41    1
     2    41    39    1
     3    39    38    1
     4    38    42    1
     5    42    43    1
     6    43    44    1
     7    38    37    1
     8    37    36    1
     9    36    35    1
    10    35    34    1
    11    34     1    1
    12     1     2   ar
    13     2     3   ar
    14     3     4   ar
    15     4     5   ar
    16     5     6   ar
    17     6     7   ar
    18     7    11    1
    19    11    13    1
    20    13    14   ar
    21    14    15   ar
    22    15    19    1
    23    19    20    1
    24    20    21    2
    25    20    22   am
    26    22    24    1
    27    24    25   ar
    28    25    26   ar
    29    26    27   ar
    30    27    28   ar
    31    28    29    1
    32    28    30   ar
    33    30    31    1
    34    15    16   ar
    35    16    17   ar
    36     7     8   ar
    37     8     9   ar
    38     9    10   ar
    39    10    32    1
    40    32    33    1
    41    10     1   ar
    42     8     3   ar
    43    17    13   ar
    44    30    24   ar
    45    44    45    1
    46    11    12    1
    47    22    23    1
    48    17    18    1
@<TRIPOS>MOLECULE
*****
 45 48 0 0 0
SMALL
GASTEIGER

@<TRIPOS>ATOM
      1 C         138.7573  143.2453  161.6289 C.ar    1  UNL1        0.1737
      2 C         138.7605  142.7214  160.2234 C.ar    1  UNL1        0.0593
      3 C         139.1010  141.2846  159.9593 C.ar    1  UNL1        0.0890
      4 N         139.1042  140.7607  158.5538 N.ar    1  UNL1       -0.2238
      5 C         139.4446  139.3240  158.2897 C.ar    1  UNL1        0.2000
      6 N         139.7818  138.4111  159.4311 N.ar    1  UNL1       -0.2089
      7 C         139.7786  138.9349  160.8367 C.ar    1  UNL1        0.1364
      8 C         139.4382  140.3717  161.1007 C.ar    1  UNL1        0.0527
      9 C         139.4350  140.8956  162.5063 C.ar    1  UNL1        0.0443
     10 C         139.0945  142.3324  162.7704 C.ar    1  UNL1        0.1726
     11 N         140.1158  138.0220  161.9781 N.pl3   1  UNL1       -0.2837
     12 H         139.5281  137.2612  162.1901 H       1  UNL1        0.1550
     13 C         141.3484  138.2684  162.7966 C.ar    1  UNL1        0.1276
     14 C         141.5026  137.9932  164.2630 C.ar    1  UNL1        0.0507
     15 C         142.8929  138.3879  164.6651 C.ar    1  UNL1        0.0903
     16 N         143.5979  138.9071  163.4471 N.ar    1  UNL1       -0.1755
     17 N         142.6434  138.8332  162.2923 N.ar    1  UNL1       -0.2631
     18 H         142.8335  139.1073  161.3660 H       1  UNL1        0.1903
     19 C         143.4757  138.2821  166.0432 C.3     1  UNL1        0.1328
     20 C         142.8372  139.0145  167.1858 C.2     1  UNL1        0.2323
     21 O         143.2532  138.7141  168.5954 O.2     1  UNL1       -0.2744
     22 N         141.7826  140.0473  166.9190 N.am    1  UNL1       -0.2818
     23 H         141.5096  140.2444  165.9939 H       1  UNL1        0.1549
     24 C         141.1440  140.7798  168.0617 C.ar    1  UNL1        0.0804
     25 C         139.9152  140.2222  168.7169 C.ar    1  UNL1        0.0171
     26 C         139.2766  140.9546  169.8597 C.ar    1  UNL1        0.0037
     27 C         139.8669  142.2446  170.3472 C.ar    1  UNL1        0.0321
     28 C         141.0957  142.8021  169.6920 C.ar    1  UNL1        0.1686
     29 F         141.6859  144.0921  170.1795 F       1  UNL1       -0.2018
     30 C         141.7342  142.0697  168.5492 C.ar    1  UNL1        0.1807
     31 F         142.9630  142.6272  167.8941 F       1  UNL1       -0.2005
     32 O         139.0913  142.8563  164.1759 O.3     1  UNL1       -0.4684
     33 C         139.0634  141.9012  165.3323 C.3     1  UNL1        0.2526
     34 O         138.4169  144.6821  161.8931 O.3     1  UNL1       -0.4723
     35 C         139.5114  145.6965  162.0448 C.3     1  UNL1        0.2070
     36 C         140.8958  145.3846  161.5589 C.3     1  UNL1        0.0646
     37 C         141.9188  144.8373  162.5096 C.3     1  UNL1        0.0760
     38 N         143.0859  144.0539  161.9862 N.3     1  UNL1       -0.2705
     39 C         144.3674  144.0070  162.7643 C.3     1  UNL1        0.0722
     40 C         145.5135  141.9523  163.8665 C.3     1  UNL1        0.0015
     41 C         144.5077  143.0636  163.9222 C.3     1  UNL1        0.0173
     42 C         142.9715  143.3173  160.6844 C.3     1  UNL1        0.1042
     43 C         143.9989  142.2901  160.3111 C.3     1  UNL1        0.1544
     44 O         143.9372  140.9159  160.9090 O.3     1  UNL1       -0.3805
     45 H         144.1018  140.9708  161.8633 H       1  UNL1        0.2105
@<TRIPOS>BOND
     1    40    41    1
     2    41    39    1
     3    39    38    1
     4    38    42    1
     5    42    43    1
     6    43    44    1
     7    38    37    1
     8    37    36    1
     9    36    35    1
    10    35    34    1
    11    34     1    1
    12     1     2   ar
    13     2     3   ar
    14     3     4   ar
    15     4     5   ar
    16     5     6   ar
    17     6     7   ar
    18     7    11    1
    19    11    13    1
    20    13    14   ar
    21    14    15   ar
    22    15    19    1
    23    19    20    1
    24    20    21    2
    25    20    22   am
    26    22    24    1
    27    24    25   ar
    28    25    26   ar
    29    26    27   ar
    30    27    28   ar
    31    28    29    1
    32    28    30   ar
    33    30    31    1
    34    15    16   ar
    35    16    17   ar
    36     7     8   ar
    37     8     9   ar
    38     9    10   ar
    39    10    32    1
    40    32    33    1
    41    10     1   ar
    42     8     3   ar
    43    17    13   ar
    44    30    24   ar
    45    44    45    1
    46    11    12    1
    47    22    23    1
    48    17    18    1
@<TRIPOS>MOLECULE
*****
 45 48 0 0 0
SMALL
GASTEIGER

@<TRIPOS>ATOM
      1 C         144.2854  139.4727  163.5311 C.ar    1  UNL1        0.1737
      2 C         143.6840  138.4870  162.5738 C.ar    1  UNL1        0.0593
      3 C         143.5738  138.8277  161.1171 C.ar    1  UNL1        0.0890
      4 N         142.9724  137.8419  160.1597 N.ar    1  UNL1       -0.2238
      5 C         142.8623  138.1826  158.7031 C.ar    1  UNL1        0.2000
      6 N         143.3535  139.5090  158.2038 N.ar    1  UNL1       -0.2089
      7 C         143.9549  140.4948  159.1612 C.ar    1  UNL1        0.1364
      8 C         144.0651  140.1541  160.6178 C.ar    1  UNL1        0.0527
      9 C         144.6665  141.1398  161.5753 C.ar    1  UNL1        0.0443
     10 C         144.7766  140.7992  163.0319 C.ar    1  UNL1        0.1726
     11 N         144.4462  141.8212  158.6619 N.pl3   1  UNL1       -0.2837
     12 H         145.4026  141.9503  158.4672 H       1  UNL1        0.1550
     13 C         143.4804  142.9508  158.4593 C.ar    1  UNL1        0.1276
     14 C         142.4038  143.3725  159.4149 C.ar    1  UNL1        0.0507
     15 C         141.6795  144.5394  158.8117 C.ar    1  UNL1        0.0903
     16 N         142.3086  144.8389  157.4832 N.ar    1  UNL1       -0.1755
     17 N         143.4215  143.8571  157.2655 N.ar    1  UNL1       -0.2631
     18 H         144.0100  143.8150  156.4774 H       1  UNL1        0.1903
     19 C         140.5284  145.2773  159.4286 C.3     1  UNL1        0.1328
     20 C         140.2959  145.2019  160.9084 C.2     1  UNL1        0.2323
     21 O         140.2087  146.4610  161.7191 O.2     1  UNL1       -0.2744
     22 N         140.1504  143.8674  161.5777 N.am    1  UNL1       -0.2818
     23 H         140.2076  143.0410  161.0457 H       1  UNL1        0.1549
     24 C         139.9178  143.7920  163.0577 C.ar    1  UNL1        0.0804
     25 C         140.9720  143.2126  163.9540 C.ar    1  UNL1        0.0171
     26 C         140.7394  143.1372  165.4340 C.ar    1  UNL1        0.0037
     27 C         139.4527  143.6412  166.0176 C.ar    1  UNL1        0.0321
     28 C         138.3987  144.2205  165.1213 C.ar    1  UNL1        0.1686
     29 F         137.1120  144.7244  165.7049 F       1  UNL1       -0.2018
     30 C         138.6312  144.2959  163.6413 C.ar    1  UNL1        0.1807
     31 F         137.5772  144.8752  162.7451 F       1  UNL1       -0.2005
     32 O         145.3781  141.7849  163.9893 O.3     1  UNL1       -0.4684
     33 C         144.6069  143.0076  164.3899 C.3     1  UNL1        0.2526
     34 O         144.3955  139.1321  164.9878 O.3     1  UNL1       -0.4723
     35 C         143.2124  138.5688  165.7179 C.3     1  UNL1        0.2070
     36 C         142.9558  138.9582  167.1435 C.3     1  UNL1        0.0646
     37 C         142.1340  140.1744  167.4525 C.3     1  UNL1        0.0760
     38 N         140.9082  140.0536  168.3085 N.3     1  UNL1       -0.2705
     39 C         139.5542  139.9581  167.6702 C.3     1  UNL1        0.0722
     40 C         138.3889  140.1196  165.3537 C.3     1  UNL1        0.0015
     41 C         139.4268  139.5056  166.2457 C.3     1  UNL1        0.0173
     42 C         141.0364  140.0284  169.8028 C.3     1  UNL1        0.1042
     43 C         142.2663  140.5814  170.4595 C.3     1  UNL1        0.1544
     44 O         142.3692  140.6100  171.9557 O.3     1  UNL1       -0.3805
     45 H         141.7056  141.2202  172.3138 H       1  UNL1        0.2105
@<TRIPOS>BOND
     1    40    41    1
     2    41    39    1
     3    39    38    1
     4    38    42    1
     5    42    43    1
     6    43    44    1
     7    38    37    1
     8    37    36    1
     9    36    35    1
    10    35    34    1
    11    34     1    1
    12     1     2   ar
    13     2     3   ar
    14     3     4   ar
    15     4     5   ar
    16     5     6   ar
    17     6     7   ar
    18     7    11    1
    19    11    13    1
    20    13    14   ar
    21    14    15   ar
    22    15    19    1
    23    19    20    1
    24    20    21    2
    25    20    22   am
    26    22    24    1
    27    24    25   ar
    28    25    26   ar
    29    26    27   ar
    30    27    28   ar
    31    28    29    1
    32    28    30   ar
    33    30    31    1
    34    15    16   ar
    35    16    17   ar
    36     7     8   ar
    37     8     9   ar
    38     9    10   ar
    39    10    32    1
    40    32    33    1
    41    10     1   ar
    42     8     3   ar
    43    17    13   ar
    44    30    24   ar
    45    44    45    1
    46    11    12    1
    47    22    23    1
    48    17    18    1
@<TRIPOS>MOLECULE
*****
 45 48 0 0 0
SMALL
GASTEIGER

@<TRIPOS>ATOM
      1 C         144.2567  142.2746  162.3605 C.ar    1  UNL1        0.1737
      2 C         144.1729  141.8647  160.9200 C.ar    1  UNL1        0.0593
      3 C         143.6052  140.5255  160.5531 C.ar    1  UNL1        0.0890
      4 N         143.5214  140.1156  159.1127 N.ar    1  UNL1       -0.2238
      5 C         142.9537  138.7765  158.7459 C.ar    1  UNL1        0.2000
      6 N         142.4699  137.8474  159.8195 N.ar    1  UNL1       -0.2089
      7 C         142.5537  138.2573  161.2599 C.ar    1  UNL1        0.1364
      8 C         143.1213  139.5964  161.6267 C.ar    1  UNL1        0.0527
      9 C         143.2052  140.0064  163.0672 C.ar    1  UNL1        0.0443
     10 C         143.7728  141.3455  163.4341 C.ar    1  UNL1        0.1726
     11 N         142.0698  137.3282  162.3335 N.pl3   1  UNL1       -0.2837
     12 H         142.6081  136.5430  162.5843 H       1  UNL1        0.1550
     13 C         140.7659  137.5954  163.0250 C.ar    1  UNL1        0.1276
     14 C         140.5976  138.0517  164.4440 C.ar    1  UNL1        0.0507
     15 C         139.1288  138.1915  164.7149 C.ar    1  UNL1        0.0903
     16 N         138.3894  137.8217  163.4632 N.ar    1  UNL1       -0.1755
     17 N         139.4011  137.4533  162.4189 N.ar    1  UNL1       -0.2631
     18 H         139.2040  137.1683  161.4974 H       1  UNL1        0.1903
     19 C         138.5085  138.6251  166.0100 C.3     1  UNL1        0.1328
     20 C         139.1749  139.6775  166.8455 C.2     1  UNL1        0.2323
     21 O         139.3841  141.0551  166.2898 O.2     1  UNL1       -0.2744
     22 N         139.6321  139.3526  168.2366 N.am    1  UNL1       -0.2818
     23 H         139.4947  138.4485  168.6013 H       1  UNL1        0.1549
     24 C         140.2985  140.4051  169.0722 C.ar    1  UNL1        0.0804
     25 C         139.4699  141.4314  169.7866 C.ar    1  UNL1        0.0171
     26 C         140.1363  142.4839  170.6222 C.ar    1  UNL1        0.0037
     27 C         141.6313  142.5102  170.7433 C.ar    1  UNL1        0.0321
     28 C         142.4597  141.4839  170.0288 C.ar    1  UNL1        0.1686
     29 F         143.9546  141.5101  170.1499 F       1  UNL1       -0.2018
     30 C         141.7933  140.4314  169.1933 C.ar    1  UNL1        0.1807
     31 F         142.6218  139.4052  168.4789 F       1  UNL1       -0.2005
     32 O         143.8567  141.7555  164.8746 O.3     1  UNL1       -0.4684
     33 C         142.7569  141.3850  165.8250 C.3     1  UNL1        0.2526
     34 O         144.8243  143.6137  162.7274 O.3     1  UNL1       -0.4723
     35 C         143.9356  144.8217  162.7599 C.3     1  UNL1        0.2070
     36 C         142.9203  144.9766  163.8531 C.3     1  UNL1        0.0646
     37 C         141.6023  144.2668  163.7587 C.3     1  UNL1        0.0760
     38 N         140.3558  145.0386  163.4417 N.3     1  UNL1       -0.2705
     39 C         139.1440  144.8975  164.3143 C.3     1  UNL1        0.0722
     40 C         137.7031  143.2650  162.8968 C.3     1  UNL1        0.0015
     41 C         138.2889  143.6688  164.2174 C.3     1  UNL1        0.0173
     42 C         140.3211  145.9516  162.2520 C.3     1  UNL1        0.1042
     43 C         140.2418  145.3779  160.8684 C.3     1  UNL1        0.1544
     44 O         140.2821  143.8918  160.6693 O.3     1  UNL1       -0.3805
     45 H         141.1512  143.5533  160.9358 H       1  UNL1        0.2105
@<TRIPOS>BOND
     1    40    41    1
     2    41    39    1
     3    39    38    1
     4    38    42    1
     5    42    43    1
     6    43    44    1
     7    38    37    1
     8    37    36    1
     9    36    35    1
    10    35    34    1
    11    34     1    1
    12     1     2   ar
    13     2     3   ar
    14     3     4   ar
    15     4     5   ar
    16     5     6   ar
    17     6     7   ar
    18     7    11    1
    19    11    13    1
    20    13    14   ar
    21    14    15   ar
    22    15    19    1
    23    19    20    1
    24    20    21    2
    25    20    22   am
    26    22    24    1
    27    24    25   ar
    28    25    26   ar
    29    26    27   ar
    30    27    28   ar
    31    28    29    1
    32    28    30   ar
    33    30    31    1
    34    15    16   ar
    35    16    17   ar
    36     7     8   ar
    37     8     9   ar
    38     9    10   ar
    39    10    32    1
    40    32    33    1
    41    10     1   ar
    42     8     3   ar
    43    17    13   ar
    44    30    24   ar
    45    44    45    1
    46    11    12    1
    47    22    23    1
    48    17    18    1
