@<TRIPOS>MOLECULE
*****
 27 29 0 0 0
SMALL
GASTEIGER

@<TRIPOS>ATOM
      1 C         142.8718  139.5987  165.3899 C.ar    1  UNL1        0.1293
      2 C         142.2716  139.6399  166.7639 C.ar    1  UNL1        0.0486
      3 C         142.3794  140.8858  167.5924 C.ar    1  UNL1        0.0519
      4 C         143.0874  142.0903  167.0468 C.ar    1  UNL1        0.0294
      5 C         143.6876  142.0491  165.6728 C.ar    1  UNL1        0.0621
      6 N         143.5798  140.8033  164.8443 N.ar    1  UNL1       -0.2351
      7 N         141.7791  140.9270  168.9664 N.pl3   1  UNL1       -0.3027
      8 C         140.6699  139.9845  169.3289 C.3     1  UNL1        0.1231
      9 C         140.0696  140.0256  170.7029 C.3     1  UNL1        0.1636
     10 O         140.5785  141.0093  171.7145 O.3     1  UNL1       -0.3501
     11 C         141.6878  141.9518  171.3521 C.3     1  UNL1        0.1636
     12 C         142.2881  141.9106  169.9780 C.3     1  UNL1        0.1231
     13 N         142.7640  138.3529  164.5614 N.pl3   1  UNL1       -0.3181
     14 H         143.4863  138.1131  163.9368 H       1  UNL1        0.1482
     15 C         141.5559  137.4725  164.6846 C.3     1  UNL1        0.0882
     16 C         139.0475  137.9340  165.1796 C.3     1  UNL1        0.0018
     17 C         140.2144  137.9731  164.2378 C.3     1  UNL1        0.0212
     18 C         144.3957  143.2537  165.1271 C.3     1  UNL1        0.0556
     19 C         143.9485  143.8638  163.8319 C.3     1  UNL1        0.0916
     20 C         142.5336  144.3365  163.6744 C.ar    1  UNL1        0.2053
     21 N         141.9716  145.0554  162.4839 N.ar    1  UNL1       -0.2168
     22 C         140.5230  145.3366  162.7535 C.ar    1  UNL1        0.0923
     23 C         139.5742  146.0394  161.8285 C.3     1  UNL1        0.0551
     24 C         140.1899  144.7915  164.1108 C.ar    1  UNL1        0.1377
     25 O         141.4325  144.1734  164.6799 O.2     1  UNL1       -0.4430
     26 C         138.8495  144.8535  164.7811 C.3     1  UNL1        0.0658
     27 C         137.8214  143.7976  164.5016 C.3     1  UNL1        0.0085
@<TRIPOS>BOND
     1    16    17    1
     2    17    15    1
     3    15    13    1
     4    13     1    1
     5     1     2   ar
     6     2     3   ar
     7     3     7    1
     8     7     8    1
     9     8     9    1
    10     9    10    1
    11    10    11    1
    12    11    12    1
    13     3     4   ar
    14     4     5   ar
    15     5    18    1
    16    18    19    1
    17    19    20    1
    18    20    21   ar
    19    21    22   ar
    20    22    23    1
    21    22    24   ar
    22    24    26    1
    23    26    27    1
    24    24    25   ar
    25     5     6   ar
    26     6     1   ar
    27    12     7    1
    28    25    20   ar
    29    13    14    1
@<TRIPOS>MOLECULE
*****
 27 29 0 0 0
SMALL
GASTEIGER

@<TRIPOS>ATOM
      1 C         142.8314  142.9205  164.9694 C.ar    1  UNL1        0.1293
      2 C         142.9098  142.4398  166.3881 C.ar    1  UNL1        0.0486
      3 C         141.6679  142.3715  167.2266 C.ar    1  UNL1        0.0519
      4 C         140.3476  142.7839  166.6463 C.ar    1  UNL1        0.0294
      5 C         140.2692  143.2646  165.2276 C.ar    1  UNL1        0.0621
      6 N         141.5111  143.3329  164.3892 N.ar    1  UNL1       -0.2351
      7 N         141.7464  141.8908  168.6453 N.pl3   1  UNL1       -0.3027
      8 C         140.8004  142.4342  169.6747 C.3     1  UNL1        0.1231
      9 C         140.8788  141.9536  171.0934 C.3     1  UNL1        0.1636
     10 O         141.9033  140.9294  171.4828 O.3     1  UNL1       -0.3501
     11 C         142.8493  140.3859  170.4534 C.3     1  UNL1        0.1636
     12 C         142.7708  140.8666  169.0346 C.3     1  UNL1        0.1231
     13 N         144.0733  142.9889  164.1310 N.pl3   1  UNL1       -0.3181
     14 H         144.1599  143.6797  163.4349 H       1  UNL1        0.1482
     15 C         145.1833  142.0048  164.3531 C.3     1  UNL1        0.0882
     16 C         144.8952  139.4233  164.4066 C.3     1  UNL1        0.0018
     17 C         145.1686  140.6843  163.6416 C.3     1  UNL1        0.0212
     18 C         138.9489  143.6770  164.6473 C.3     1  UNL1        0.0556
     19 C         137.8170  142.6947  164.5860 C.3     1  UNL1        0.0916
     20 C         138.0786  141.2728  164.1859 C.ar    1  UNL1        0.2053
     21 N         137.7863  140.6662  162.8455 N.ar    1  UNL1       -0.2168
     22 C         138.2055  139.2265  162.8870 C.ar    1  UNL1        0.0923
     23 C         138.0931  138.2427  161.7603 C.3     1  UNL1        0.0551
     24 C         138.7568  138.9435  164.2530 C.ar    1  UNL1        0.1377
     25 O         138.6783  140.2082  165.0558 O.2     1  UNL1       -0.4430
     26 C         139.2924  137.6269  164.7322 C.3     1  UNL1        0.0658
     27 C         140.7577  137.3270  164.6181 C.3     1  UNL1        0.0085
@<TRIPOS>BOND
     1    16    17    1
     2    17    15    1
     3    15    13    1
     4    13     1    1
     5     1     2   ar
     6     2     3   ar
     7     3     7    1
     8     7     8    1
     9     8     9    1
    10     9    10    1
    11    10    11    1
    12    11    12    1
    13     3     4   ar
    14     4     5   ar
    15     5    18    1
    16    18    19    1
    17    19    20    1
    18    20    21   ar
    19    21    22   ar
    20    22    23    1
    21    22    24   ar
    22    24    26    1
    23    26    27    1
    24    24    25   ar
    25     5     6   ar
    26     6     1   ar
    27    12     7    1
    28    25    20   ar
    29    13    14    1
@<TRIPOS>MOLECULE
*****
 27 29 0 0 0
SMALL
GASTEIGER

@<TRIPOS>ATOM
      1 C         142.4845  143.0217  164.6226 C.ar    1  UNL1        0.1293
      2 C         142.4487  142.0999  165.8053 C.ar    1  UNL1        0.0486
      3 C         141.2382  142.0621  166.6904 C.ar    1  UNL1        0.0519
      4 C         140.0635  142.9461  166.3927 C.ar    1  UNL1        0.0294
      5 C         140.0993  143.8678  165.2099 C.ar    1  UNL1        0.0621
      6 N         141.3098  143.9056  164.3249 N.ar    1  UNL1       -0.2351
      7 N         141.2025  141.1403  167.8732 N.pl3   1  UNL1       -0.3027
      8 C         139.9895  141.0978  168.7546 C.3     1  UNL1        0.1231
      9 C         139.9538  140.1760  169.9374 C.3     1  UNL1        0.1636
     10 O         141.1311  139.2967  170.2389 O.3     1  UNL1       -0.3501
     11 C         142.3441  139.3392  169.3575 C.3     1  UNL1        0.1636
     12 C         142.3798  140.2610  168.1747 C.3     1  UNL1        0.1231
     13 N         143.6949  143.0595  163.7375 N.pl3   1  UNL1       -0.3181
     14 H         143.6110  143.3513  162.8010 H       1  UNL1        0.1482
     15 C         145.0332  142.6528  164.2792 C.3     1  UNL1        0.0882
     16 C         145.0901  140.0669  164.0341 C.3     1  UNL1        0.0018
     17 C         145.7024  141.4106  163.7702 C.3     1  UNL1        0.0212
     18 C         138.9246  144.7518  164.9122 C.3     1  UNL1        0.0556
     19 C         137.6991  144.1780  164.2649 C.3     1  UNL1        0.0916
     20 C         137.8351  143.2179  163.1205 C.ar    1  UNL1        0.2053
     21 N         138.3022  143.5570  161.7360 N.ar    1  UNL1       -0.2168
     22 C         138.2837  142.2988  160.9194 C.ar    1  UNL1        0.0923
     23 C         138.6750  142.1784  159.4764 C.3     1  UNL1        0.0551
     24 C         137.8052  141.1821  161.7993 C.ar    1  UNL1        0.1377
     25 O         137.5280  141.7502  163.1596 O.2     1  UNL1       -0.4430
     26 C         137.6340  139.7492  161.3907 C.3     1  UNL1        0.0658
     27 C         138.2142  138.6538  162.2354 C.3     1  UNL1        0.0085
@<TRIPOS>BOND
     1    16    17    1
     2    17    15    1
     3    15    13    1
     4    13     1    1
     5     1     2   ar
     6     2     3   ar
     7     3     7    1
     8     7     8    1
     9     8     9    1
    10     9    10    1
    11    10    11    1
    12    11    12    1
    13     3     4   ar
    14     4     5   ar
    15     5    18    1
    16    18    19    1
    17    19    20    1
    18    20    21   ar
    19    21    22   ar
    20    22    23    1
    21    22    24   ar
    22    24    26    1
    23    26    27    1
    24    24    25   ar
    25     5     6   ar
    26     6     1   ar
    27    12     7    1
    28    25    20   ar
    29    13    14    1
@<TRIPOS>MOLECULE
*****
 27 29 0 0 0
SMALL
GASTEIGER

@<TRIPOS>ATOM
      1 C         139.9689  142.4928  165.0073 C.ar    1  UNL1        0.1293
      2 C         140.4479  142.7531  166.4046 C.ar    1  UNL1        0.0486
      3 C         140.4546  141.6436  167.4141 C.ar    1  UNL1        0.0519
      4 C         139.9823  140.2738  167.0262 C.ar    1  UNL1        0.0294
      5 C         139.5033  140.0135  165.6288 C.ar    1  UNL1        0.0621
      6 N         139.4966  141.1230  164.6194 N.ar    1  UNL1       -0.2351
      7 N         140.9337  141.9040  168.8116 N.pl3   1  UNL1       -0.3027
      8 C         140.0757  141.5235  169.9816 C.3     1  UNL1        0.1231
      9 C         140.5547  141.7839  171.3790 C.3     1  UNL1        0.1636
     10 O         141.8918  142.4248  171.6064 O.3     1  UNL1       -0.3501
     11 C         142.7498  142.8053  170.4363 C.3     1  UNL1        0.1636
     12 C         142.2707  142.5449  169.0389 C.3     1  UNL1        0.1231
     13 N         139.9622  143.6022  163.9978 N.pl3   1  UNL1       -0.3181
     14 H         139.1277  144.0881  163.8059 H       1  UNL1        0.1482
     15 C         141.2269  143.9715  163.2808 C.3     1  UNL1        0.0882
     16 C         143.4985  145.0412  163.9481 C.3     1  UNL1        0.0018
     17 C         142.0202  145.1643  163.7254 C.3     1  UNL1        0.0212
     18 C         139.0309  138.6437  165.2409 C.3     1  UNL1        0.0556
     19 C         140.0258  137.5853  164.8667 C.3     1  UNL1        0.0916
     20 C         141.3360  137.9728  164.2475 C.ar    1  UNL1        0.2053
     21 N         141.7388  137.7439  162.8209 N.ar    1  UNL1       -0.2168
     22 C         143.1252  138.2868  162.6379 C.ar    1  UNL1        0.0923
     23 C         143.9183  138.2685  161.3649 C.3     1  UNL1        0.0551
     24 C         143.5790  138.8513  163.9515 C.ar    1  UNL1        0.1377
     25 O         142.4732  138.6572  164.9463 O.2     1  UNL1       -0.4430
     26 C         144.9056  139.4965  164.2226 C.3     1  UNL1        0.0658
     27 C         145.1966  140.8671  163.6870 C.3     1  UNL1        0.0085
@<TRIPOS>BOND
     1    16    17    1
     2    17    15    1
     3    15    13    1
     4    13     1    1
     5     1     2   ar
     6     2     3   ar
     7     3     7    1
     8     7     8    1
     9     8     9    1
    10     9    10    1
    11    10    11    1
    12    11    12    1
    13     3     4   ar
    14     4     5   ar
    15     5    18    1
    16    18    19    1
    17    19    20    1
    18    20    21   ar
    19    21    22   ar
    20    22    23    1
    21    22    24   ar
    22    24    26    1
    23    26    27    1
    24    24    25   ar
    25     5     6   ar
    26     6     1   ar
    27    12     7    1
    28    25    20   ar
    29    13    14    1
@<TRIPOS>MOLECULE
*****
 27 29 0 0 0
SMALL
GASTEIGER

@<TRIPOS>ATOM
      1 C         142.0742  139.4464  165.5038 C.ar    1  UNL1        0.1293
      2 C         141.9939  139.9277  166.9222 C.ar    1  UNL1        0.0486
      3 C         140.7630  140.6359  167.4053 C.ar    1  UNL1        0.0519
      4 C         139.6124  140.8626  166.4701 C.ar    1  UNL1        0.0294
      5 C         139.6927  140.3812  165.0517 C.ar    1  UNL1        0.0621
      6 N         140.9237  139.6731  164.5686 N.ar    1  UNL1       -0.2351
      7 N         140.6827  141.1173  168.8237 N.pl3   1  UNL1       -0.3027
      8 C         140.9718  140.1738  169.9534 C.3     1  UNL1        0.1231
      9 C         140.8915  140.6551  171.3718 C.3     1  UNL1        0.1636
     10 O         140.5221  142.0800  171.6606 O.3     1  UNL1       -0.3501
     11 C         140.2330  143.0235  170.5309 C.3     1  UNL1        0.1636
     12 C         140.3133  142.5421  169.1124 C.3     1  UNL1        0.1231
     13 N         143.3052  138.7382  165.0207 N.pl3   1  UNL1       -0.3181
     14 H         143.4498  137.7915  165.2487 H       1  UNL1        0.1482
     15 C         144.3157  139.4726  164.1904 C.3     1  UNL1        0.0882
     16 C         145.7180  141.6133  163.7424 C.3     1  UNL1        0.0018
     17 C         144.5951  140.9219  164.4573 C.3     1  UNL1        0.0212
     18 C         138.5421  140.6080  164.1164 C.3     1  UNL1        0.0556
     19 C         137.9318  141.9728  163.9952 C.3     1  UNL1        0.0916
     20 C         138.7836  143.1431  163.6015 C.ar    1  UNL1        0.2053
     21 N         138.4377  144.1788  162.5731 N.ar    1  UNL1       -0.2168
     22 C         139.5711  145.1589  162.5030 C.ar    1  UNL1        0.0923
     23 C         139.6452  146.3585  161.6054 C.3     1  UNL1        0.0551
     24 C         140.6174  144.7289  163.4881 C.ar    1  UNL1        0.1377
     25 O         140.1307  143.4830  164.1670 O.2     1  UNL1       -0.4430
     26 C         141.9214  145.4228  163.7486 C.3     1  UNL1        0.0658
     27 C         143.2064  144.8038  163.2840 C.3     1  UNL1        0.0085
@<TRIPOS>BOND
     1    16    17    1
     2    17    15    1
     3    15    13    1
     4    13     1    1
     5     1     2   ar
     6     2     3   ar
     7     3     7    1
     8     7     8    1
     9     8     9    1
    10     9    10    1
    11    10    11    1
    12    11    12    1
    13     3     4   ar
    14     4     5   ar
    15     5    18    1
    16    18    19    1
    17    19    20    1
    18    20    21   ar
    19    21    22   ar
    20    22    23    1
    21    22    24   ar
    22    24    26    1
    23    26    27    1
    24    24    25   ar
    25     5     6   ar
    26     6     1   ar
    27    12     7    1
    28    25    20   ar
    29    13    14    1
@<TRIPOS>MOLECULE
*****
 27 29 0 0 0
SMALL
GASTEIGER

@<TRIPOS>ATOM
      1 C         140.7180  143.7424  164.3024 C.ar    1  UNL1        0.1293
      2 C         140.1736  143.3467  165.6429 C.ar    1  UNL1        0.0486
      3 C         141.0317  142.5783  166.6037 C.ar    1  UNL1        0.0519
      4 C         142.4342  142.2056  166.2240 C.ar    1  UNL1        0.0294
      5 C         142.9785  142.6013  164.8835 C.ar    1  UNL1        0.0621
      6 N         142.1204  143.3697  163.9227 N.ar    1  UNL1       -0.2351
      7 N         140.4873  142.1825  167.9443 N.pl3   1  UNL1       -0.3027
      8 C         140.4981  143.1649  169.0778 C.3     1  UNL1        0.1231
      9 C         139.9537  142.7692  170.4184 C.3     1  UNL1        0.1636
     10 O         139.3986  141.3912  170.6254 O.3     1  UNL1       -0.3501
     11 C         139.3878  140.4088  169.4919 C.3     1  UNL1        0.1636
     12 C         139.9322  140.8045  168.1513 C.3     1  UNL1        0.1231
     13 N         139.8599  144.5108  163.3415 N.pl3   1  UNL1       -0.3181
     14 H         140.2699  145.1631  162.7285 H       1  UNL1        0.1482
     15 C         138.3772  144.2855  163.3147 C.3     1  UNL1        0.0882
     16 C         137.3829  141.8862  163.2453 C.3     1  UNL1        0.0018
     17 C         137.8070  143.1377  162.5353 C.3     1  UNL1        0.0212
     18 C         144.3810  142.2286  164.5037 C.3     1  UNL1        0.0556
     19 C         144.7877  140.7855  164.4595 C.3     1  UNL1        0.0916
     20 C         143.9377  139.7887  163.7288 C.ar    1  UNL1        0.2053
     21 N         144.0989  139.3749  162.2960 N.ar    1  UNL1       -0.2168
     22 C         143.0380  138.3612  161.9842 C.ar    1  UNL1        0.0923
     23 C         142.8304  137.6798  160.6641 C.3     1  UNL1        0.0551
     24 C         142.2212  138.1486  163.2243 C.ar    1  UNL1        0.1377
     25 O         142.7773  139.0309  164.3024 O.2     1  UNL1       -0.4430
     26 C         141.0535  137.2173  163.3620 C.3     1  UNL1        0.0658
     27 C         139.7056  137.6227  162.8436 C.3     1  UNL1        0.0085
@<TRIPOS>BOND
     1    16    17    1
     2    17    15    1
     3    15    13    1
     4    13     1    1
     5     1     2   ar
     6     2     3   ar
     7     3     7    1
     8     7     8    1
     9     8     9    1
    10     9    10    1
    11    10    11    1
    12    11    12    1
    13     3     4   ar
    14     4     5   ar
    15     5    18    1
    16    18    19    1
    17    19    20    1
    18    20    21   ar
    19    21    22   ar
    20    22    23    1
    21    22    24   ar
    22    24    26    1
    23    26    27    1
    24    24    25   ar
    25     5     6   ar
    26     6     1   ar
    27    12     7    1
    28    25    20   ar
    29    13    14    1
@<TRIPOS>MOLECULE
*****
 27 29 0 0 0
SMALL
GASTEIGER

@<TRIPOS>ATOM
      1 C         140.9404  141.0638  167.5965 C.ar    1  UNL1        0.1293
      2 C         140.7835  142.1775  166.6041 C.ar    1  UNL1        0.0486
      3 C         139.7336  142.0884  165.5365 C.ar    1  UNL1        0.0519
      4 C         138.8406  140.8856  165.4613 C.ar    1  UNL1        0.0294
      5 C         138.9975  139.7718  166.4537 C.ar    1  UNL1        0.0621
      6 N         140.0474  139.8609  167.5213 N.ar    1  UNL1       -0.2351
      7 N         139.5768  143.2022  164.5440 N.pl3   1  UNL1       -0.3027
      8 C         140.7610  144.0412  164.1649 C.3     1  UNL1        0.1231
      9 C         140.6042  145.1550  163.1725 C.3     1  UNL1        0.1636
     10 O         139.2631  145.4298  162.5592 O.3     1  UNL1       -0.3501
     11 C         138.0789  144.5908  162.9383 C.3     1  UNL1        0.1636
     12 C         138.2358  143.4769  163.9307 C.3     1  UNL1        0.1231
     13 N         141.9903  141.1529  168.6641 N.pl3   1  UNL1       -0.3181
     14 H         142.3311  140.3328  169.0890 H       1  UNL1        0.1482
     15 C         142.5209  142.4914  169.0844 C.3     1  UNL1        0.0882
     16 C         140.4752  143.8844  169.8750 C.3     1  UNL1        0.0018
     17 C         141.8176  143.2753  170.1526 C.3     1  UNL1        0.0212
     18 C         138.1044  138.5689  166.3786 C.3     1  UNL1        0.0556
     19 C         138.5141  137.3807  165.5600 C.3     1  UNL1        0.0916
     20 C         139.1858  137.5793  164.2335 C.ar    1  UNL1        0.2053
     21 N         140.6621  137.5183  163.9750 N.ar    1  UNL1       -0.2168
     22 C         140.8879  137.7751  162.5144 C.ar    1  UNL1        0.0923
     23 C         142.2170  137.8067  161.8199 C.3     1  UNL1        0.0551
     24 C         139.5510  137.9946  161.8703 C.ar    1  UNL1        0.1377
     25 O         138.4992  137.8736  162.9328 O.2     1  UNL1       -0.4430
     26 C         139.3087  138.2843  160.4188 C.3     1  UNL1        0.0658
     27 C         138.9257  139.6678  159.9837 C.3     1  UNL1        0.0085
@<TRIPOS>BOND
     1    16    17    1
     2    17    15    1
     3    15    13    1
     4    13     1    1
     5     1     2   ar
     6     2     3   ar
     7     3     7    1
     8     7     8    1
     9     8     9    1
    10     9    10    1
    11    10    11    1
    12    11    12    1
    13     3     4   ar
    14     4     5   ar
    15     5    18    1
    16    18    19    1
    17    19    20    1
    18    20    21   ar
    19    21    22   ar
    20    22    23    1
    21    22    24   ar
    22    24    26    1
    23    26    27    1
    24    24    25   ar
    25     5     6   ar
    26     6     1   ar
    27    12     7    1
    28    25    20   ar
    29    13    14    1
@<TRIPOS>MOLECULE
*****
 27 29 0 0 0
SMALL
GASTEIGER

@<TRIPOS>ATOM
      1 C         142.0192  142.0932  166.7590 C.ar    1  UNL1        0.1293
      2 C         141.0033  142.8375  165.9441 C.ar    1  UNL1        0.0486
      3 C         141.3596  143.3366  164.5753 C.ar    1  UNL1        0.0519
      4 C         142.7318  143.0916  164.0212 C.ar    1  UNL1        0.0294
      5 C         143.7477  142.3474  164.8361 C.ar    1  UNL1        0.0621
      6 N         143.3914  141.8482  166.2050 N.ar    1  UNL1       -0.2351
      7 N         140.3436  144.0809  163.7604 N.pl3   1  UNL1       -0.3027
      8 C         140.7756  145.2102  162.8726 C.3     1  UNL1        0.1231
      9 C         139.7597  145.9544  162.0578 C.3     1  UNL1        0.1636
     10 O         138.3117  145.5694  162.1307 O.3     1  UNL1       -0.3501
     11 C         137.8798  144.4401  163.0184 C.3     1  UNL1        0.1636
     12 C         138.8958  143.6958  163.8333 C.3     1  UNL1        0.1231
     13 N         141.6629  141.5941  168.1279 N.pl3   1  UNL1       -0.3181
     14 H         140.9980  140.8756  168.2322 H       1  UNL1        0.1482
     15 C         142.3197  142.1896  169.3378 C.3     1  UNL1        0.0882
     16 C         140.4452  143.9265  169.8061 C.3     1  UNL1        0.0018
     17 C         141.5112  142.9984  170.3084 C.3     1  UNL1        0.0212
     18 C         145.1200  142.1023  164.2821 C.3     1  UNL1        0.0556
     19 C         145.5064  140.7302  163.8154 C.3     1  UNL1        0.0916
     20 C         144.4841  139.8417  163.1705 C.ar    1  UNL1        0.2053
     21 N         144.4089  139.4983  161.7123 N.ar    1  UNL1       -0.2168
     22 C         143.2359  138.5851  161.5111 C.ar    1  UNL1        0.0923
     23 C         142.7908  137.9962  160.2054 C.3     1  UNL1        0.0551
     24 C         142.5863  138.3642  162.8451 C.ar    1  UNL1        0.1377
     25 O         143.3578  139.1409  163.8706 O.2     1  UNL1       -0.4430
     26 C         141.3776  137.5158  163.1074 C.3     1  UNL1        0.0658
     27 C         141.1325  136.9635  164.4803 C.3     1  UNL1        0.0085
@<TRIPOS>BOND
     1    16    17    1
     2    17    15    1
     3    15    13    1
     4    13     1    1
     5     1     2   ar
     6     2     3   ar
     7     3     7    1
     8     7     8    1
     9     8     9    1
    10     9    10    1
    11    10    11    1
    12    11    12    1
    13     3     4   ar
    14     4     5   ar
    15     5    18    1
    16    18    19    1
    17    19    20    1
    18    20    21   ar
    19    21    22   ar
    20    22    23    1
    21    22    24   ar
    22    24    26    1
    23    26    27    1
    24    24    25   ar
    25     5     6   ar
    26     6     1   ar
    27    12     7    1
    28    25    20   ar
    29    13    14    1
@<TRIPOS>MOLECULE
*****
 27 29 0 0 0
SMALL
GASTEIGER

@<TRIPOS>ATOM
      1 C         138.2958  141.0769  163.0694 C.ar    1  UNL1        0.1293
      2 C         139.4908  140.7951  162.2077 C.ar    1  UNL1        0.0486
      3 C         140.3552  139.6024  162.4910 C.ar    1  UNL1        0.0519
      4 C         140.0247  138.6916  163.6361 C.ar    1  UNL1        0.0294
      5 C         138.8297  138.9734  164.4977 C.ar    1  UNL1        0.0621
      6 N         137.9653  140.1661  164.2144 N.ar    1  UNL1       -0.2351
      7 N         141.5503  139.3205  161.6293 N.pl3   1  UNL1       -0.3027
      8 C         142.2927  140.4525  160.9831 C.3     1  UNL1        0.1231
      9 C         143.4876  140.1707  160.1214 C.3     1  UNL1        0.1636
     10 O         143.9403  138.7569  159.9058 O.3     1  UNL1       -0.3501
     11 C         143.1978  137.6250  160.5520 C.3     1  UNL1        0.1636
     12 C         142.0028  137.9068  161.4137 C.3     1  UNL1        0.1231
     13 N         137.4314  142.2696  162.7861 N.pl3   1  UNL1       -0.3181
     14 H         136.5095  142.1441  162.4642 H       1  UNL1        0.1482
     15 C         137.9716  143.6535  162.9931 C.3     1  UNL1        0.0882
     16 C         139.2284  143.9502  165.2475 C.3     1  UNL1        0.0018
     17 C         138.0413  144.2325  164.3751 C.3     1  UNL1        0.0212
     18 C         138.4991  138.0626  165.6428 C.3     1  UNL1        0.0556
     19 C         138.0157  138.6360  166.9419 C.3     1  UNL1        0.0916
     20 C         138.8731  139.6069  167.6984 C.ar    1  UNL1        0.2053
     21 N         139.6388  140.7534  167.1073 N.ar    1  UNL1       -0.2168
     22 C         140.3543  141.4568  168.2225 C.ar    1  UNL1        0.0923
     23 C         141.2381  142.6606  168.0820 C.3     1  UNL1        0.0551
     24 C         140.0307  140.7451  169.5026 C.ar    1  UNL1        0.1377
     25 O         139.1153  139.6018  169.1787 O.2     1  UNL1       -0.4430
     26 C         140.5340  141.1122  170.8670 C.3     1  UNL1        0.0658
     27 C         141.9636  140.8467  171.2356 C.3     1  UNL1        0.0085
@<TRIPOS>BOND
     1    16    17    1
     2    17    15    1
     3    15    13    1
     4    13     1    1
     5     1     2   ar
     6     2     3   ar
     7     3     7    1
     8     7     8    1
     9     8     9    1
    10     9    10    1
    11    10    11    1
    12    11    12    1
    13     3     4   ar
    14     4     5   ar
    15     5    18    1
    16    18    19    1
    17    19    20    1
    18    20    21   ar
    19    21    22   ar
    20    22    23    1
    21    22    24   ar
    22    24    26    1
    23    26    27    1
    24    24    25   ar
    25     5     6   ar
    26     6     1   ar
    27    12     7    1
    28    25    20   ar
    29    13    14    1
