@<TRIPOS>MOLECULE
*****
 32 35 0 0 0
SMALL
GASTEIGER

@<TRIPOS>ATOM
      1 C         138.9389  138.5195  163.2073 C.3     1  UNL1        0.0634
      2 C         139.3944  138.1392  164.5850 C.3     1  UNL1        0.0393
      3 C         140.6139  137.2766  164.4485 C.3     1  UNL1        0.1452
      4 O         140.9122  137.1237  162.9864 O.3     1  UNL1       -0.3306
      5 C         139.8770  137.8918  162.2192 C.3     1  UNL1        0.2320
      6 O         139.7944  138.0113  160.7264 O.3     1  UNL1       -0.3601
      7 H         139.0331  138.5630  160.4878 H       1  UNL1        0.2129
      8 C         137.7536  139.3768  162.8758 C.3     1  UNL1        0.0317
      9 C         137.8682  143.2723  163.6254 C.ar    1  UNL1        0.1751
     10 C         137.6941  141.7956  163.8225 C.ar    1  UNL1        0.0360
     11 C         137.9278  140.8536  162.6787 C.ar    1  UNL1       -0.0158
     12 C         138.3356  141.3884  161.3380 C.ar    1  UNL1        0.0360
     13 C         138.5098  142.8651  161.1410 C.ar    1  UNL1        0.1751
     14 C         138.2761  143.8071  162.2847 C.ar    1  UNL1        0.2060
     15 C         138.7993  144.7642  165.5379 C.3     1  UNL1        0.2526
     16 O         137.6345  144.2143  164.7692 O.3     1  UNL1       -0.4683
     17 O         138.9176  143.4000  159.8002 O.3     1  UNL1       -0.4683
     18 C         140.3477  143.3043  159.3580 C.3     1  UNL1        0.2526
     19 O         138.4503  145.2839  162.0876 O.3     1  UNL1       -0.4654
     20 C         139.8252  145.8835  162.0878 C.3     1  UNL1        0.2528
     21 C         138.7444  138.5496  165.8731 C.3     1  UNL1        0.0292
     22 C         139.3508  139.6407  166.7049 C.ar    1  UNL1       -0.0159
     23 C         140.2849  140.6318  166.0764 C.ar    1  UNL1        0.0360
     24 C         140.8913  141.7229  166.9081 C.ar    1  UNL1        0.1753
     25 C         140.5635  141.8228  168.3684 C.ar    1  UNL1        0.2100
     26 C         139.6294  140.8317  168.9970 C.ar    1  UNL1        0.1792
     27 C         139.0231  139.7406  168.1653 C.ar    1  UNL1        0.0361
     28 O         139.4938  141.1794  170.4499 O.3     1  UNL1       -0.4345
     29 C         140.3440  142.3854  170.7191 C.3     1  UNL1        0.4295
     30 O         141.0052  142.7831  169.4328 O.3     1  UNL1       -0.4315
     31 O         141.8254  142.7140  166.2795 O.3     1  UNL1       -0.4683
     32 C         143.2449  142.3266  165.9885 C.3     1  UNL1        0.2526
@<TRIPOS>BOND
     1    15    16    1
     2    16     9    1
     3     9    10   ar
     4    10    11   ar
     5    11     8    1
     6     1     8    1
     7     1     2    1
     8     2    21    1
     9    21    22    1
    10    22    23   ar
    11    23    24   ar
    12    24    31    1
    13    31    32    1
    14    24    25   ar
    15    25    26   ar
    16    26    27   ar
    17    26    28    1
    18    28    29    1
    19    29    30    1
    20     2     3    1
    21     3     4    1
    22     4     5    1
    23     5     6    1
    24    11    12   ar
    25    12    13   ar
    26    13    17    1
    27    17    18    1
    28    13    14   ar
    29    14    19    1
    30    19    20    1
    31    14     9   ar
    32     5     1    1
    33    27    22   ar
    34    30    25    1
    35     6     7    1
@<TRIPOS>MOLECULE
*****
 32 35 0 0 0
SMALL
GASTEIGER

@<TRIPOS>ATOM
      1 C         138.9417  138.4864  163.2123 C.3     1  UNL1        0.0634
      2 C         139.3408  138.1820  164.6259 C.3     1  UNL1        0.0393
      3 C         140.5608  137.3104  164.5857 C.3     1  UNL1        0.1452
      4 O         140.9158  137.0759  163.1473 O.3     1  UNL1       -0.3306
      5 C         139.9152  137.8027  162.2984 C.3     1  UNL1        0.2320
      6 O         139.8920  137.8395  160.7992 O.3     1  UNL1       -0.3601
      7 H         139.1432  138.3789  160.5005 H       1  UNL1        0.2129
      8 C         137.7742  139.3268  162.7872 C.3     1  UNL1        0.0317
      9 C         138.5176  142.8462  161.1106 C.ar    1  UNL1        0.1751
     10 C         138.3522  141.3655  161.2840 C.ar    1  UNL1        0.0360
     11 C         137.9396  140.8076  162.6139 C.ar    1  UNL1       -0.0158
     12 C         137.6924  141.7303  163.7703 C.ar    1  UNL1        0.0360
     13 C         137.8579  143.2110  163.5969 C.ar    1  UNL1        0.1751
     14 C         138.2705  143.7689  162.2671 C.ar    1  UNL1        0.2060
     15 C         138.7796  142.5748  158.5401 C.3     1  UNL1        0.2526
     16 O         138.9303  143.4041  159.7808 O.3     1  UNL1       -0.4683
     17 O         137.6107  144.1339  164.7534 O.3     1  UNL1       -0.4683
     18 C         138.7683  144.7359  165.4932 C.3     1  UNL1        0.2526
     19 O         138.4359  145.2497  162.0937 O.3     1  UNL1       -0.4654
     20 C         139.8078  145.8561  162.0931 C.3     1  UNL1        0.2528
     21 C         138.6424  138.6647  165.8625 C.3     1  UNL1        0.0292
     22 C         139.2724  139.7275  166.7133 C.ar    1  UNL1       -0.0159
     23 C         140.1500  140.7689  166.0848 C.ar    1  UNL1        0.0360
     24 C         140.7800  141.8316  166.9355 C.ar    1  UNL1        0.1753
     25 C         140.5323  141.8529  168.4148 C.ar    1  UNL1        0.2100
     26 C         139.6546  140.8114  169.0433 C.ar    1  UNL1        0.1792
     27 C         139.0246  139.7487  168.1926 C.ar    1  UNL1        0.0361
     28 O         139.5933  141.0848  170.5169 O.3     1  UNL1       -0.4345
     29 C         140.4330  142.2952  170.7991 C.3     1  UNL1        0.4295
     30 O         141.0134  142.7699  169.4999 O.3     1  UNL1       -0.4315
     31 O         141.6577  142.8730  166.3070 O.3     1  UNL1       -0.4683
     32 C         141.9801  142.7986  164.8439 C.3     1  UNL1        0.2526
@<TRIPOS>BOND
     1    15    16    1
     2    16     9    1
     3     9    10   ar
     4    10    11   ar
     5    11     8    1
     6     1     8    1
     7     1     2    1
     8     2    21    1
     9    21    22    1
    10    22    23   ar
    11    23    24   ar
    12    24    31    1
    13    31    32    1
    14    24    25   ar
    15    25    26   ar
    16    26    27   ar
    17    26    28    1
    18    28    29    1
    19    29    30    1
    20     2     3    1
    21     3     4    1
    22     4     5    1
    23     5     6    1
    24    11    12   ar
    25    12    13   ar
    26    13    17    1
    27    17    18    1
    28    13    14   ar
    29    14    19    1
    30    19    20    1
    31    14     9   ar
    32     5     1    1
    33    27    22   ar
    34    30    25    1
    35     6     7    1
@<TRIPOS>MOLECULE
*****
 32 35 0 0 0
SMALL
GASTEIGER

@<TRIPOS>ATOM
      1 C         141.3063  139.9180  169.2486 C.3     1  UNL1        0.0634
      2 C         139.8903  140.0093  168.7620 C.3     1  UNL1        0.0393
      3 C         139.0654  140.6309  169.8497 C.3     1  UNL1        0.1452
      4 O         139.9716  140.9238  171.0087 O.3     1  UNL1       -0.3306
      5 C         141.3565  140.4832  170.6372 C.3     1  UNL1        0.2320
      6 O         142.5772  140.5892  171.5023 O.3     1  UNL1       -0.3601
      7 H         143.3433  140.2331  171.0256 H       1  UNL1        0.2129
      8 C         142.4680  139.3597  168.4814 C.3     1  UNL1        0.0317
      9 C         143.2211  141.6311  165.3154 C.ar    1  UNL1        0.1751
     10 C         142.9910  141.2131  166.7375 C.ar    1  UNL1        0.0360
     11 C         142.6981  139.7776  167.0593 C.ar    1  UNL1       -0.0158
     12 C         142.6353  138.7601  165.9590 C.ar    1  UNL1        0.0360
     13 C         142.8654  139.1781  164.5369 C.ar    1  UNL1        0.1751
     14 C         143.1583  140.6136  164.2152 C.ar    1  UNL1        0.2060
     15 C         144.7226  143.7349  165.5791 C.3     1  UNL1        0.2526
     16 O         143.5141  143.0666  164.9937 O.3     1  UNL1       -0.4683
     17 O         142.8026  138.1606  163.4366 O.3     1  UNL1       -0.4683
     18 C         141.4926  137.5242  163.0774 C.3     1  UNL1        0.2526
     19 O         143.3884  141.0316  162.7930 O.3     1  UNL1       -0.4654
     20 C         144.7872  141.1826  162.2727 C.3     1  UNL1        0.2528
     21 C         139.3875  139.5582  167.4227 C.3     1  UNL1        0.0292
     22 C         139.1452  140.5627  166.3353 C.ar    1  UNL1       -0.0159
     23 C         138.2840  140.2037  165.1609 C.ar    1  UNL1        0.0360
     24 C         138.0417  141.2081  164.0735 C.ar    1  UNL1        0.1753
     25 C         138.6607  142.5716  164.1606 C.ar    1  UNL1        0.2100
     26 C         139.5220  142.9307  165.3350 C.ar    1  UNL1        0.1792
     27 C         139.7643  141.9263  166.4224 C.ar    1  UNL1        0.0361
     28 O         139.9950  144.3420  165.1487 O.3     1  UNL1       -0.4345
     29 C         139.4261  144.8550  163.8592 C.3     1  UNL1        0.4295
     30 O         138.6014  143.7610  163.2484 O.3     1  UNL1       -0.4315
     31 O         137.1805  140.8490  162.8991 O.3     1  UNL1       -0.4683
     32 C         137.7891  140.7203  161.5342 C.3     1  UNL1        0.2526
@<TRIPOS>BOND
     1    15    16    1
     2    16     9    1
     3     9    10   ar
     4    10    11   ar
     5    11     8    1
     6     1     8    1
     7     1     2    1
     8     2    21    1
     9    21    22    1
    10    22    23   ar
    11    23    24   ar
    12    24    31    1
    13    31    32    1
    14    24    25   ar
    15    25    26   ar
    16    26    27   ar
    17    26    28    1
    18    28    29    1
    19    29    30    1
    20     2     3    1
    21     3     4    1
    22     4     5    1
    23     5     6    1
    24    11    12   ar
    25    12    13   ar
    26    13    17    1
    27    17    18    1
    28    13    14   ar
    29    14    19    1
    30    19    20    1
    31    14     9   ar
    32     5     1    1
    33    27    22   ar
    34    30    25    1
    35     6     7    1
@<TRIPOS>MOLECULE
*****
 32 35 0 0 0
SMALL
GASTEIGER

@<TRIPOS>ATOM
      1 C         140.6682  140.4546  169.1183 C.3     1  UNL1        0.0634
      2 C         142.1226  140.0917  169.0629 C.3     1  UNL1        0.0393
      3 C         142.8300  140.8447  170.1505 C.3     1  UNL1        0.1452
      4 O         141.8127  141.6728  170.8780 O.3     1  UNL1       -0.3306
      5 C         140.4766  141.4318  170.2402 C.3     1  UNL1        0.2320
      6 O         139.1773  142.0579  170.6518 O.3     1  UNL1       -0.3601
      7 H         138.4659  141.7338  170.0775 H       1  UNL1        0.2129
      8 C         139.5939  139.9320  168.2112 C.3     1  UNL1        0.0317
      9 C         138.9427  140.0224  164.2974 C.ar    1  UNL1        0.1751
     10 C         139.0471  139.5163  165.7056 C.ar    1  UNL1        0.0360
     11 C         139.4895  140.4382  166.8030 C.ar    1  UNL1       -0.0158
     12 C         139.8276  141.8661  166.4923 C.ar    1  UNL1        0.0360
     13 C         139.7232  142.3722  165.0842 C.ar    1  UNL1        0.1751
     14 C         139.2808  141.4504  163.9867 C.ar    1  UNL1        0.2060
     15 C         138.9633  137.6739  163.1866 C.3     1  UNL1        0.2526
     16 O         138.5002  139.1005  163.2000 O.3     1  UNL1       -0.4683
     17 O         140.0613  143.8003  164.7734 O.3     1  UNL1       -0.4683
     18 C         139.0019  144.8583  164.8628 C.3     1  UNL1        0.2526
     19 O         139.1764  141.9565  162.5785 O.3     1  UNL1       -0.4654
     20 C         137.8784  142.5168  162.0773 C.3     1  UNL1        0.2528
     21 C         142.7581  139.1426  168.0907 C.3     1  UNL1        0.0292
     22 C         142.8236  139.4936  166.6337 C.ar    1  UNL1       -0.0159
     23 C         143.1026  140.9064  166.2144 C.ar    1  UNL1        0.0360
     24 C         143.1681  141.2574  164.7576 C.ar    1  UNL1        0.1753
     25 C         142.9545  140.1955  163.7199 C.ar    1  UNL1        0.2100
     26 C         142.6755  138.7826  164.1392 C.ar    1  UNL1        0.1792
     27 C         142.6100  138.4316  165.5961 C.ar    1  UNL1        0.0361
     28 O         142.5080  137.9555  162.8991 O.3     1  UNL1       -0.4345
     29 C         142.6835  138.8573  161.7134 C.3     1  UNL1        0.4295
     30 O         142.9595  140.2417  162.2207 O.3     1  UNL1       -0.4315
     31 O         143.4471  142.6704  164.3383 O.3     1  UNL1       -0.4683
     32 C         144.4223  143.5045  165.1150 C.3     1  UNL1        0.2526
@<TRIPOS>BOND
     1    15    16    1
     2    16     9    1
     3     9    10   ar
     4    10    11   ar
     5    11     8    1
     6     1     8    1
     7     1     2    1
     8     2    21    1
     9    21    22    1
    10    22    23   ar
    11    23    24   ar
    12    24    31    1
    13    31    32    1
    14    24    25   ar
    15    25    26   ar
    16    26    27   ar
    17    26    28    1
    18    28    29    1
    19    29    30    1
    20     2     3    1
    21     3     4    1
    22     4     5    1
    23     5     6    1
    24    11    12   ar
    25    12    13   ar
    26    13    17    1
    27    17    18    1
    28    13    14   ar
    29    14    19    1
    30    19    20    1
    31    14     9   ar
    32     5     1    1
    33    27    22   ar
    34    30    25    1
    35     6     7    1
@<TRIPOS>MOLECULE
*****
 32 35 0 0 0
SMALL
GASTEIGER

@<TRIPOS>ATOM
      1 C         141.3182  139.9163  169.2179 C.3     1  UNL1        0.0634
      2 C         139.8998  140.0212  168.7412 C.3     1  UNL1        0.0393
      3 C         139.0881  140.6480  169.8359 C.3     1  UNL1        0.1452
      4 O         140.0048  140.9306  170.9890 O.3     1  UNL1       -0.3306
      5 C         141.3831  140.4784  170.6071 C.3     1  UNL1        0.2320
      6 O         142.6107  140.5719  171.4639 O.3     1  UNL1       -0.3601
      7 H         143.3702  140.2098  170.9813 H       1  UNL1        0.2129
      8 C         142.4696  139.3491  168.4416 C.3     1  UNL1        0.0317
      9 C         142.7457  139.0722  164.4923 C.ar    1  UNL1        0.1751
     10 C         142.5497  138.6906  165.9296 C.ar    1  UNL1        0.0360
     11 C         142.6656  139.7307  167.0042 C.ar    1  UNL1       -0.0158
     12 C         142.9775  141.1523  166.6415 C.ar    1  UNL1        0.0360
     13 C         143.1735  141.5339  165.2042 C.ar    1  UNL1        0.1751
     14 C         143.0576  140.4938  164.1296 C.ar    1  UNL1        0.2060
     15 C         141.2911  137.4427  163.0856 C.3     1  UNL1        0.2526
     16 O         142.6299  138.0321  163.4177 O.3     1  UNL1       -0.4683
     17 O         143.4854  142.9556  164.8414 O.3     1  UNL1       -0.4683
     18 C         144.6318  143.6636  165.5005 C.3     1  UNL1        0.2526
     19 O         143.2536  140.8754  162.6922 O.3     1  UNL1       -0.4654
     20 C         144.5865  140.6677  162.0361 C.3     1  UNL1        0.2528
     21 C         139.3837  139.5771  167.4047 C.3     1  UNL1        0.0292
     22 C         139.1441  140.5857  166.3204 C.ar    1  UNL1       -0.0159
     23 C         138.2746  140.2356  165.1494 C.ar    1  UNL1        0.0360
     24 C         138.0350  141.2441  164.0652 C.ar    1  UNL1        0.1753
     25 C         138.6648  142.6027  164.1521 C.ar    1  UNL1        0.2100
     26 C         139.5343  142.9528  165.3231 C.ar    1  UNL1        0.1792
     27 C         139.7740  141.9443  166.4073 C.ar    1  UNL1        0.0361
     28 O         140.0173  144.3607  165.1374 O.3     1  UNL1       -0.4345
     29 C         139.4463  144.8807  163.8516 C.3     1  UNL1        0.4295
     30 O         138.6104  143.7943  163.2426 O.3     1  UNL1       -0.4315
     31 O         137.1654  140.8940  162.8941 O.3     1  UNL1       -0.4683
     32 C         137.7738  140.2949  161.6609 C.3     1  UNL1        0.2526
@<TRIPOS>BOND
     1    15    16    1
     2    16     9    1
     3     9    10   ar
     4    10    11   ar
     5    11     8    1
     6     1     8    1
     7     1     2    1
     8     2    21    1
     9    21    22    1
    10    22    23   ar
    11    23    24   ar
    12    24    31    1
    13    31    32    1
    14    24    25   ar
    15    25    26   ar
    16    26    27   ar
    17    26    28    1
    18    28    29    1
    19    29    30    1
    20     2     3    1
    21     3     4    1
    22     4     5    1
    23     5     6    1
    24    11    12   ar
    25    12    13   ar
    26    13    17    1
    27    17    18    1
    28    13    14   ar
    29    14    19    1
    30    19    20    1
    31    14     9   ar
    32     5     1    1
    33    27    22   ar
    34    30    25    1
    35     6     7    1
@<TRIPOS>MOLECULE
*****
 32 35 0 0 0
SMALL
GASTEIGER

@<TRIPOS>ATOM
      1 C         140.6969  140.4123  168.9991 C.3     1  UNL1        0.0634
      2 C         142.1518  140.0762  168.8560 C.3     1  UNL1        0.0393
      3 C         142.9018  140.7923  169.9397 C.3     1  UNL1        0.1452
      4 O         141.9106  141.5710  170.7528 O.3     1  UNL1       -0.3306
      5 C         140.5478  141.3361  170.1715 C.3     1  UNL1        0.2320
      6 O         139.2619  141.9222  170.6742 O.3     1  UNL1       -0.3601
      7 H         138.5274  141.6119  170.1218 H       1  UNL1        0.2129
      8 C         139.5862  139.9123  168.1237 C.3     1  UNL1        0.0317
      9 C         138.8951  139.9459  164.2159 C.ar    1  UNL1        0.1751
     10 C         139.0112  139.4610  165.6306 C.ar    1  UNL1        0.0360
     11 C         139.4701  140.3972  166.7090 C.ar    1  UNL1       -0.0158
     12 C         139.8129  141.8182  166.3727 C.ar    1  UNL1        0.0360
     13 C         139.6968  142.3031  164.9580 C.ar    1  UNL1        0.1751
     14 C         139.2379  141.3669  163.8796 C.ar    1  UNL1        0.2060
     15 C         139.1057  137.6786  162.9648 C.3     1  UNL1        0.2526
     16 O         138.4361  139.0097  163.1375 O.3     1  UNL1       -0.4683
     17 O         140.0397  143.7242  164.6217 O.3     1  UNL1       -0.4683
     18 C         139.0348  144.8133  164.8542 C.3     1  UNL1        0.2526
     19 O         139.1218  141.8518  162.4648 O.3     1  UNL1       -0.4654
     20 C         137.8757  142.5538  162.0125 C.3     1  UNL1        0.2528
     21 C         142.7513  139.1811  167.8122 C.3     1  UNL1        0.0292
     22 C         142.8576  139.6517  166.3918 C.ar    1  UNL1       -0.0159
     23 C         142.6819  138.6784  165.2642 C.ar    1  UNL1        0.0360
     24 C         142.7882  139.1490  163.8439 C.ar    1  UNL1        0.1753
     25 C         143.0701  140.5929  163.5513 C.ar    1  UNL1        0.2100
     26 C         143.2458  141.5663  164.6790 C.ar    1  UNL1        0.1792
     27 C         143.1396  141.0957  166.0993 C.ar    1  UNL1        0.0361
     28 O         143.5133  142.9183  164.0869 O.3     1  UNL1       -0.4345
     29 C         143.5029  142.7805  162.5933 C.3     1  UNL1        0.4295
     30 O         143.2290  141.3433  162.2622 O.3     1  UNL1       -0.4315
     31 O         142.6125  138.1756  162.7161 O.3     1  UNL1       -0.4683
     32 C         143.7229  137.9610  161.7308 C.3     1  UNL1        0.2526
@<TRIPOS>BOND
     1    15    16    1
     2    16     9    1
     3     9    10   ar
     4    10    11   ar
     5    11     8    1
     6     1     8    1
     7     1     2    1
     8     2    21    1
     9    21    22    1
    10    22    23   ar
    11    23    24   ar
    12    24    31    1
    13    31    32    1
    14    24    25   ar
    15    25    26   ar
    16    26    27   ar
    17    26    28    1
    18    28    29    1
    19    29    30    1
    20     2     3    1
    21     3     4    1
    22     4     5    1
    23     5     6    1
    24    11    12   ar
    25    12    13   ar
    26    13    17    1
    27    17    18    1
    28    13    14   ar
    29    14    19    1
    30    19    20    1
    31    14     9   ar
    32     5     1    1
    33    27    22   ar
    34    30    25    1
    35     6     7    1
@<TRIPOS>MOLECULE
*****
 32 35 0 0 0
SMALL
GASTEIGER

@<TRIPOS>ATOM
      1 C         142.9337  140.2865  167.4455 C.3     1  UNL1        0.0634
      2 C         142.9559  141.7681  167.2126 C.3     1  UNL1        0.0393
      3 C         142.7241  142.4479  168.5295 C.3     1  UNL1        0.1452
      4 O         142.5586  141.3864  169.5763 O.3     1  UNL1       -0.3306
      5 C         142.6881  140.0505  168.9064 C.3     1  UNL1        0.2320
      6 O         142.5895  138.7136  169.5792 O.3     1  UNL1       -0.3601
      7 H         142.7095  138.0109  168.9213 H       1  UNL1        0.2129
      8 C         143.1236  139.2268  166.4010 C.3     1  UNL1        0.0317
      9 C         139.4213  138.6213  165.1061 C.ar    1  UNL1        0.1751
     10 C         140.5668  139.0169  165.9900 C.ar    1  UNL1        0.0360
     11 C         141.9781  138.8312  165.5170 C.ar    1  UNL1       -0.0158
     12 C         142.2439  138.2499  164.1600 C.ar    1  UNL1        0.0360
     13 C         141.0984  137.8543  163.2761 C.ar    1  UNL1        0.1751
     14 C         139.6871  138.0400  163.7491 C.ar    1  UNL1        0.2060
     15 C         137.6495  138.4993  167.0023 C.3     1  UNL1        0.2526
     16 O         138.0100  138.8069  165.5792 O.3     1  UNL1       -0.4683
     17 O         141.3642  137.2730  161.9190 O.3     1  UNL1       -0.4683
     18 C         141.6642  138.1781  160.7611 C.3     1  UNL1        0.2526
     19 O         138.5416  137.6444  162.8651 O.3     1  UNL1       -0.4654
     20 C         138.0357  138.5963  161.8222 C.3     1  UNL1        0.2528
     21 C         143.1719  142.4502  165.8942 C.3     1  UNL1        0.0292
     22 C         142.0035  143.0137  165.1409 C.ar    1  UNL1       -0.0159
     23 C         140.6373  142.4223  165.3242 C.ar    1  UNL1        0.0360
     24 C         139.4689  142.9857  164.5709 C.ar    1  UNL1        0.1753
     25 C         139.6668  144.1405  163.6343 C.ar    1  UNL1        0.2100
     26 C         141.0331  144.7319  163.4509 C.ar    1  UNL1        0.1792
     27 C         142.2014  144.1685  164.2042 C.ar    1  UNL1        0.0361
     28 O         140.9224  145.8581  162.4664 O.3     1  UNL1       -0.4345
     29 C         139.4877  145.9627  162.0412 C.3     1  UNL1        0.4295
     30 O         138.7117  144.9012  162.7630 O.3     1  UNL1       -0.4315
     31 O         138.1027  142.3943  164.7543 O.3     1  UNL1       -0.4683
     32 C         137.3924  141.7716  163.5890 C.3     1  UNL1        0.2526
@<TRIPOS>BOND
     1    15    16    1
     2    16     9    1
     3     9    10   ar
     4    10    11   ar
     5    11     8    1
     6     1     8    1
     7     1     2    1
     8     2    21    1
     9    21    22    1
    10    22    23   ar
    11    23    24   ar
    12    24    31    1
    13    31    32    1
    14    24    25   ar
    15    25    26   ar
    16    26    27   ar
    17    26    28    1
    18    28    29    1
    19    29    30    1
    20     2     3    1
    21     3     4    1
    22     4     5    1
    23     5     6    1
    24    11    12   ar
    25    12    13   ar
    26    13    17    1
    27    17    18    1
    28    13    14   ar
    29    14    19    1
    30    19    20    1
    31    14     9   ar
    32     5     1    1
    33    27    22   ar
    34    30    25    1
    35     6     7    1
@<TRIPOS>MOLECULE
*****
 32 35 0 0 0
SMALL
GASTEIGER

@<TRIPOS>ATOM
      1 C         141.3319  140.0924  169.1560 C.3     1  UNL1        0.0634
      2 C         139.8619  140.1075  168.8579 C.3     1  UNL1        0.0393
      3 C         139.1815  140.9176  169.9213 C.3     1  UNL1        0.1452
      4 O         140.2310  141.4032  170.8767 O.3     1  UNL1       -0.3306
      5 C         141.5600  140.8932  170.4037 C.3     1  UNL1        0.2320
      6 O         142.8845  141.1406  171.0627 O.3     1  UNL1       -0.3601
      7 H         143.5849  140.7000  170.5564 H       1  UNL1        0.2129
      8 C         142.3883  139.3984  168.3483 C.3     1  UNL1        0.0317
      9 C         142.5635  138.9993  164.4037 C.ar    1  UNL1        0.1751
     10 C         142.3896  138.6656  165.8557 C.ar    1  UNL1        0.0360
     11 C         142.5622  139.7322  166.8962 C.ar    1  UNL1       -0.0158
     12 C         142.9087  141.1324  166.4847 C.ar    1  UNL1        0.0360
     13 C         143.0826  141.4660  165.0327 C.ar    1  UNL1        0.1751
     14 C         142.9100  140.3995  163.9922 C.ar    1  UNL1        0.2060
     15 C         141.0142  137.5047  162.9490 C.3     1  UNL1        0.2526
     16 O         142.3909  137.9328  163.3631 O.3     1  UNL1       -0.4683
     17 O         143.4291  142.8663  164.6212 O.3     1  UNL1       -0.4683
     18 C         144.5127  143.6131  165.3408 C.3     1  UNL1        0.2526
     19 O         143.0839  140.7332  162.5401 O.3     1  UNL1       -0.4654
     20 C         141.8882  141.0710  161.6998 C.3     1  UNL1        0.2528
     21 C         139.1902  139.4312  167.6997 C.3     1  UNL1        0.0292
     22 C         139.0497  140.1496  166.3903 C.ar    1  UNL1       -0.0159
     23 C         139.5041  141.5734  166.2635 C.ar    1  UNL1        0.0360
     24 C         139.3636  142.2918  164.9543 C.ar    1  UNL1        0.1753
     25 C         138.7687  141.5863  163.7718 C.ar    1  UNL1        0.2100
     26 C         138.3143  140.1624  163.8985 C.ar    1  UNL1        0.1792
     27 C         138.4547  139.4440  165.2078 C.ar    1  UNL1        0.0361
     28 O         137.7701  139.7294  162.5695 O.3     1  UNL1       -0.4345
     29 C         137.8881  140.8857  161.6213 C.3     1  UNL1        0.4295
     30 O         138.5053  142.0333  162.3643 O.3     1  UNL1       -0.4315
     31 O         139.8180  143.7157  164.8275 O.3     1  UNL1       -0.4683
     32 C         138.8911  144.8347  165.1996 C.3     1  UNL1        0.2526
@<TRIPOS>BOND
     1    15    16    1
     2    16     9    1
     3     9    10   ar
     4    10    11   ar
     5    11     8    1
     6     1     8    1
     7     1     2    1
     8     2    21    1
     9    21    22    1
    10    22    23   ar
    11    23    24   ar
    12    24    31    1
    13    31    32    1
    14    24    25   ar
    15    25    26   ar
    16    26    27   ar
    17    26    28    1
    18    28    29    1
    19    29    30    1
    20     2     3    1
    21     3     4    1
    22     4     5    1
    23     5     6    1
    24    11    12   ar
    25    12    13   ar
    26    13    17    1
    27    17    18    1
    28    13    14   ar
    29    14    19    1
    30    19    20    1
    31    14     9   ar
    32     5     1    1
    33    27    22   ar
    34    30    25    1
    35     6     7    1
@<TRIPOS>MOLECULE
*****
 32 35 0 0 0
SMALL
GASTEIGER

@<TRIPOS>ATOM
      1 C         140.6783  140.4591  169.1337 C.3     1  UNL1        0.0634
      2 C         142.1331  140.1057  169.0410 C.3     1  UNL1        0.0393
      3 C         142.8698  140.8983  170.0798 C.3     1  UNL1        0.1452
      4 O         141.8703  141.7415  170.8145 O.3     1  UNL1       -0.3306
      5 C         140.5158  141.4701  170.2299 C.3     1  UNL1        0.2320
      6 O         139.2255  142.0992  170.6649 O.3     1  UNL1       -0.3601
      7 H         138.4982  141.7516  170.1253 H       1  UNL1        0.2129
      8 C         139.5789  139.8997  168.2802 C.3     1  UNL1        0.0317
      9 C         139.6274  142.1591  165.0178 C.ar    1  UNL1        0.1751
     10 C         139.7516  141.7377  166.4520 C.ar    1  UNL1        0.0360
     11 C         139.4547  140.3211  166.8459 C.ar    1  UNL1       -0.0158
     12 C         139.0338  139.3259  165.8055 C.ar    1  UNL1        0.0360
     13 C         138.9097  139.7473  164.3714 C.ar    1  UNL1        0.1751
     14 C         139.2065  141.1639  163.9775 C.ar    1  UNL1        0.2060
     15 C         139.0376  144.6880  165.0999 C.3     1  UNL1        0.2526
     16 O         139.9242  143.5757  164.6239 O.3     1  UNL1       -0.4683
     17 O         138.4887  138.7520  163.3309 O.3     1  UNL1       -0.4683
     18 C         139.4110  137.6333  162.9465 C.3     1  UNL1        0.2526
     19 O         139.0823  141.5852  162.5432 O.3     1  UNL1       -0.4654
     20 C         137.9294  142.4416  162.1102 C.3     1  UNL1        0.2528
     21 C         142.7440  139.1309  168.0784 C.3     1  UNL1        0.0292
     22 C         142.9108  139.5060  166.6356 C.ar    1  UNL1       -0.0159
     23 C         143.1836  140.9317  166.2580 C.ar    1  UNL1        0.0360
     24 C         143.3503  141.3068  164.8153 C.ar    1  UNL1        0.1753
     25 C         143.2443  140.2561  163.7501 C.ar    1  UNL1        0.2100
     26 C         142.9714  138.8302  164.1277 C.ar    1  UNL1        0.1792
     27 C         142.8047  138.4551  165.5704 C.ar    1  UNL1        0.0361
     28 O         142.9205  138.0185  162.8673 O.3     1  UNL1       -0.4345
     29 C         143.1618  138.9428  161.7107 C.3     1  UNL1        0.4295
     30 O         143.3619  140.3256  162.2564 O.3     1  UNL1       -0.4315
     31 O         143.6232  142.7327  164.4378 O.3     1  UNL1       -0.4683
     32 C         144.4706  143.5947  165.3259 C.3     1  UNL1        0.2526
@<TRIPOS>BOND
     1    15    16    1
     2    16     9    1
     3     9    10   ar
     4    10    11   ar
     5    11     8    1
     6     1     8    1
     7     1     2    1
     8     2    21    1
     9    21    22    1
    10    22    23   ar
    11    23    24   ar
    12    24    31    1
    13    31    32    1
    14    24    25   ar
    15    25    26   ar
    16    26    27   ar
    17    26    28    1
    18    28    29    1
    19    29    30    1
    20     2     3    1
    21     3     4    1
    22     4     5    1
    23     5     6    1
    24    11    12   ar
    25    12    13   ar
    26    13    17    1
    27    17    18    1
    28    13    14   ar
    29    14    19    1
    30    19    20    1
    31    14     9   ar
    32     5     1    1
    33    27    22   ar
    34    30    25    1
    35     6     7    1
