@<TRIPOS>MOLECULE
*****
 45 48 0 0 0
SMALL
GASTEIGER

@<TRIPOS>ATOM
      1 C         141.3590  144.6307  162.3158 C.3     1  UNL1        0.0412
      2 C         140.7948  145.2509  161.0720 C.3     1  UNL1        0.0249
      3 C         141.4124  144.5638  159.8902 C.3     1  UNL1        0.0935
      4 N         142.3582  143.5190  160.4037 N.am    1  UNL1       -0.2795
      5 C         143.1908  142.5950  159.5652 C.2     1  UNL1        0.2256
      6 O         143.1185  142.6702  158.0688 O.2     1  UNL1       -0.2749
      7 C         142.3252  143.5603  161.9027 C.3     1  UNL1        0.0951
      8 C         141.0170  145.0136  163.7252 C.3     1  UNL1        0.0914
      9 O         138.5775  143.2733  163.8670 O.2     1  UNL1       -0.2701
     10 C         139.6902  143.0869  164.8554 C.2     1  UNL1        0.2458
     11 N         140.9100  143.9570  164.7846 N.am    1  UNL1       -0.3008
     12 H         141.6403  143.8347  165.4333 H       1  UNL1        0.1497
     13 C         139.5832  142.0303  165.9148 C.ar    1  UNL1        0.0533
     14 C         139.0318  140.6779  165.5722 C.ar    1  UNL1        0.0083
     15 C         138.9248  139.6213  166.6316 C.ar    1  UNL1        0.0715
     16 C         139.3691  139.9171  168.0335 C.ar    1  UNL1        0.0077
     17 C         139.9205  141.2694  168.3759 C.ar    1  UNL1        0.0715
     18 C         140.0275  142.3260  167.3166 C.ar    1  UNL1        0.0083
     19 C         138.3735  138.2691  166.2890 C.3     1  UNL1        0.4186
     20 F         137.8221  136.9168  165.9465 F       1  UNL1       -0.1659
     21 F         139.3469  138.1599  165.1530 F       1  UNL1       -0.1659
     22 F         137.4001  138.3782  167.4251 F       1  UNL1       -0.1659
     23 C         140.3648  141.5651  169.7778 C.3     1  UNL1        0.4186
     24 F         140.8091  141.8608  171.1796 F       1  UNL1       -0.1659
     25 F         140.1472  143.0297  169.5377 F       1  UNL1       -0.1659
     26 F         140.5823  140.1005  170.0178 F       1  UNL1       -0.1659
     27 C         144.0957  141.5958  160.2231 C.3     1  UNL1        0.0853
     28 C         143.7042  140.1488  160.2740 C.3     1  UNL1        0.0096
     29 C         144.2731  139.2548  161.3357 C.3     1  UNL1        0.0012
     30 C         143.3623  138.3870  162.1527 C.3     1  UNL1        0.0087
     31 C         142.2593  139.0068  162.9584 C.3     1  UNL1        0.0446
     32 C         142.5288  139.4887  164.3531 C.ar    1  UNL1       -0.0183
     33 C         142.3959  138.5450  165.5115 C.ar    1  UNL1       -0.0017
     34 C         142.6655  139.0269  166.9061 C.ar    1  UNL1        0.0293
     35 C         143.0679  140.4525  167.1424 C.ar    1  UNL1        0.1401
     36 F         143.3375  140.9344  168.5371 F       1  UNL1       -0.2042
     37 C         143.2008  141.3962  165.9840 C.ar    1  UNL1        0.0293
     38 C         142.9313  140.9142  164.5894 C.ar    1  UNL1       -0.0017
     39 C         140.8867  139.1447  162.3694 C.ar    1  UNL1       -0.0183
     40 C         140.0705  137.9212  162.0748 C.ar    1  UNL1       -0.0017
     41 C         138.6979  138.0592  161.4858 C.ar    1  UNL1        0.0293
     42 C         138.1414  139.4206  161.1914 C.ar    1  UNL1        0.1401
     43 F         136.7688  139.5586  160.6024 F       1  UNL1       -0.2042
     44 C         138.9576  140.6442  161.4860 C.ar    1  UNL1        0.0293
     45 C         140.3302  140.5063  162.0750 C.ar    1  UNL1       -0.0017
@<TRIPOS>BOND
     1     9    10    2
     2    10    11   am
     3    11     8    1
     4     8     1    1
     5     1     2    1
     6     2     3    1
     7     3     4    1
     8     4     5   am
     9     5     6    2
    10     5    27    1
    11    27    28    1
    12    28    29    1
    13    29    30    1
    14    30    31    1
    15    31    32    1
    16    32    33   ar
    17    33    34   ar
    18    34    35   ar
    19    35    36    1
    20    35    37   ar
    21    37    38   ar
    22    31    39    1
    23    39    40   ar
    24    40    41   ar
    25    41    42   ar
    26    42    43    1
    27    42    44   ar
    28    44    45   ar
    29     4     7    1
    30    10    13    1
    31    13    14   ar
    32    14    15   ar
    33    15    19    1
    34    19    20    1
    35    19    21    1
    36    19    22    1
    37    15    16   ar
    38    16    17   ar
    39    17    23    1
    40    23    24    1
    41    23    25    1
    42    23    26    1
    43    17    18   ar
    44     7     1    1
    45    18    13   ar
    46    38    32   ar
    47    45    39   ar
    48    11    12    1
@<TRIPOS>MOLECULE
*****
 45 48 0 0 0
SMALL
GASTEIGER

@<TRIPOS>ATOM
      1 C         141.1471  144.7353  161.8530 C.3     1  UNL1        0.0412
      2 C         140.5641  145.1432  160.5324 C.3     1  UNL1        0.0249
      3 C         141.3875  144.5139  159.4480 C.3     1  UNL1        0.0935
      4 N         142.4793  143.7170  160.0983 N.am    1  UNL1       -0.2795
      5 C         143.5344  142.9228  159.3871 C.2     1  UNL1        0.2256
      6 O         143.5572  142.8789  157.8879 O.2     1  UNL1       -0.2749
      7 C         142.3307  143.8538  161.5846 C.3     1  UNL1        0.0951
      8 C         140.6361  145.1381  163.2045 C.3     1  UNL1        0.0914
      9 O         138.3803  143.1756  163.4495 O.2     1  UNL1       -0.2701
     10 C         139.4969  143.1637  164.4511 C.2     1  UNL1        0.2458
     11 N         140.6248  144.1449  164.3286 N.am    1  UNL1       -0.3008
     12 H         141.3576  144.1371  164.9860 H       1  UNL1        0.1497
     13 C         139.4855  142.1705  165.5752 C.ar    1  UNL1        0.0533
     14 C         139.9660  142.5744  166.9377 C.ar    1  UNL1        0.0083
     15 C         139.9546  141.5812  168.0618 C.ar    1  UNL1        0.0715
     16 C         139.4629  140.1843  167.8234 C.ar    1  UNL1        0.0077
     17 C         138.9825  139.7805  166.4610 C.ar    1  UNL1        0.0715
     18 C         138.9938  140.7736  165.3369 C.ar    1  UNL1        0.0083
     19 C         140.4350  141.9851  169.4241 C.3     1  UNL1        0.4186
     20 F         140.9154  142.3890  170.7865 F       1  UNL1       -0.1659
     21 F         140.5745  140.5405  169.8032 F       1  UNL1       -0.1659
     22 F         140.2956  143.4297  169.0450 F       1  UNL1       -0.1659
     23 C         138.4908  138.3836  166.2227 C.3     1  UNL1        0.4186
     24 F         137.9990  136.9867  165.9843 F       1  UNL1       -0.1659
     25 F         139.6357  138.1406  165.2846 F       1  UNL1       -0.1659
     26 F         137.3458  138.6266  167.1607 F       1  UNL1       -0.1659
     27 C         144.5669  142.1723  160.1751 C.3     1  UNL1        0.0853
     28 C         144.1422  141.2318  161.2636 C.3     1  UNL1        0.0096
     29 C         144.1625  139.7510  161.0255 C.3     1  UNL1        0.0012
     30 C         143.6108  138.8170  162.0616 C.3     1  UNL1        0.0087
     31 C         142.4484  139.2402  162.9099 C.3     1  UNL1        0.0446
     32 C         141.0690  139.2874  162.3224 C.ar    1  UNL1       -0.0183
     33 C         140.2685  138.0263  162.1857 C.ar    1  UNL1       -0.0017
     34 C         138.8892  138.0736  161.5982 C.ar    1  UNL1        0.0293
     35 C         138.3103  139.3820  161.1475 C.ar    1  UNL1        0.1401
     36 F         136.9309  139.4292  160.5600 F       1  UNL1       -0.2042
     37 C         139.1109  140.6431  161.2842 C.ar    1  UNL1        0.0293
     38 C         140.4902  140.5958  161.8717 C.ar    1  UNL1       -0.0017
     39 C         142.6653  139.6162  164.3457 C.ar    1  UNL1       -0.0183
     40 C         142.6541  138.5574  165.4082 C.ar    1  UNL1       -0.0017
     41 C         142.8710  138.9334  166.8440 C.ar    1  UNL1        0.0293
     42 C         143.0991  140.3681  167.2174 C.ar    1  UNL1        0.1401
     43 F         143.3161  140.7440  168.6532 F       1  UNL1       -0.2042
     44 C         143.1104  141.4269  166.1549 C.ar    1  UNL1        0.0293
     45 C         142.8935  141.0510  164.7191 C.ar    1  UNL1       -0.0017
@<TRIPOS>BOND
     1     9    10    2
     2    10    11   am
     3    11     8    1
     4     8     1    1
     5     1     2    1
     6     2     3    1
     7     3     4    1
     8     4     5   am
     9     5     6    2
    10     5    27    1
    11    27    28    1
    12    28    29    1
    13    29    30    1
    14    30    31    1
    15    31    32    1
    16    32    33   ar
    17    33    34   ar
    18    34    35   ar
    19    35    36    1
    20    35    37   ar
    21    37    38   ar
    22    31    39    1
    23    39    40   ar
    24    40    41   ar
    25    41    42   ar
    26    42    43    1
    27    42    44   ar
    28    44    45   ar
    29     4     7    1
    30    10    13    1
    31    13    14   ar
    32    14    15   ar
    33    15    19    1
    34    19    20    1
    35    19    21    1
    36    19    22    1
    37    15    16   ar
    38    16    17   ar
    39    17    23    1
    40    23    24    1
    41    23    25    1
    42    23    26    1
    43    17    18   ar
    44     7     1    1
    45    18    13   ar
    46    38    32   ar
    47    45    39   ar
    48    11    12    1
@<TRIPOS>MOLECULE
*****
 45 48 0 0 0
SMALL
GASTEIGER

@<TRIPOS>ATOM
      1 C         139.7366  144.6982  161.5860 C.3     1  UNL1        0.0412
      2 C         140.1277  145.8295  160.6820 C.3     1  UNL1        0.0249
      3 C         141.2054  145.3366  159.7623 C.3     1  UNL1        0.0935
      4 N         141.4803  143.9008  160.0980 N.am    1  UNL1       -0.2795
      5 C         142.4863  143.0150  159.4247 C.2     1  UNL1        0.2256
      6 O         143.3281  143.5519  158.3052 O.2     1  UNL1       -0.2749
      7 C         140.5725  143.5062  161.2250 C.3     1  UNL1        0.0951
      8 C         138.6928  144.7498  162.6620 C.3     1  UNL1        0.0914
      9 O         140.8811  144.6098  164.7093 O.2     1  UNL1       -0.2701
     10 C         139.7528  143.6222  164.7488 C.2     1  UNL1        0.2458
     11 N         138.6586  143.6922  163.7252 N.am    1  UNL1       -0.3008
     12 H         137.9181  143.0440  163.7512 H       1  UNL1        0.1497
     13 C         139.7187  142.5646  165.8120 C.ar    1  UNL1        0.0533
     14 C         139.2690  141.1743  165.4728 C.ar    1  UNL1        0.0083
     15 C         139.2349  140.1167  166.5360 C.ar    1  UNL1        0.0715
     16 C         139.6504  140.4494  167.9384 C.ar    1  UNL1        0.0077
     17 C         140.1001  141.8397  168.2776 C.ar    1  UNL1        0.0715
     18 C         140.1342  142.8973  167.2144 C.ar    1  UNL1        0.0083
     19 C         138.7852  138.7266  166.1968 C.3     1  UNL1        0.4186
     20 F         138.3357  137.3363  165.8575 F       1  UNL1       -0.1659
     21 F         137.3594  139.1316  166.4265 F       1  UNL1       -0.1659
     22 F         140.2112  138.3215  165.9670 F       1  UNL1       -0.1659
     23 C         140.5156  142.1723  169.6800 C.3     1  UNL1        0.4186
     24 F         140.9311  142.5050  171.0824 F       1  UNL1       -0.1659
     25 F         140.3663  140.7306  170.0662 F       1  UNL1       -0.1659
     26 F         140.6649  143.6140  169.2938 F       1  UNL1       -0.1659
     27 C         142.6507  141.5924  159.8710 C.3     1  UNL1        0.0853
     28 C         143.7098  141.2380  160.8723 C.3     1  UNL1        0.0096
     29 C         144.0317  139.7988  161.1460 C.3     1  UNL1        0.0012
     30 C         143.9370  139.2617  162.5434 C.3     1  UNL1        0.0087
     31 C         142.7677  139.6261  163.4093 C.3     1  UNL1        0.0446
     32 C         141.3776  139.2489  162.9902 C.ar    1  UNL1       -0.0183
     33 C         140.9174  137.8266  163.1125 C.ar    1  UNL1       -0.0017
     34 C         139.5274  137.4495  162.6934 C.ar    1  UNL1        0.0293
     35 C         138.5977  138.4947  162.1521 C.ar    1  UNL1        0.1401
     36 F         137.2076  138.1175  161.7330 F       1  UNL1       -0.2042
     37 C         139.0579  139.9171  162.0299 C.ar    1  UNL1        0.0293
     38 C         140.4479  140.2942  162.4489 C.ar    1  UNL1       -0.0017
     39 C         142.9884  140.3677  164.6944 C.ar    1  UNL1       -0.0183
     40 C         143.3312  141.8278  164.6683 C.ar    1  UNL1       -0.0017
     41 C         143.5519  142.5694  165.9534 C.ar    1  UNL1        0.0293
     42 C         143.4297  141.8510  167.2644 C.ar    1  UNL1        0.1401
     43 F         143.6504  142.5926  168.5495 F       1  UNL1       -0.2042
     44 C         143.0869  140.3909  167.2905 C.ar    1  UNL1        0.0293
     45 C         142.8662  139.6492  166.0055 C.ar    1  UNL1       -0.0017
@<TRIPOS>BOND
     1     9    10    2
     2    10    11   am
     3    11     8    1
     4     8     1    1
     5     1     2    1
     6     2     3    1
     7     3     4    1
     8     4     5   am
     9     5     6    2
    10     5    27    1
    11    27    28    1
    12    28    29    1
    13    29    30    1
    14    30    31    1
    15    31    32    1
    16    32    33   ar
    17    33    34   ar
    18    34    35   ar
    19    35    36    1
    20    35    37   ar
    21    37    38   ar
    22    31    39    1
    23    39    40   ar
    24    40    41   ar
    25    41    42   ar
    26    42    43    1
    27    42    44   ar
    28    44    45   ar
    29     4     7    1
    30    10    13    1
    31    13    14   ar
    32    14    15   ar
    33    15    19    1
    34    19    20    1
    35    19    21    1
    36    19    22    1
    37    15    16   ar
    38    16    17   ar
    39    17    23    1
    40    23    24    1
    41    23    25    1
    42    23    26    1
    43    17    18   ar
    44     7     1    1
    45    18    13   ar
    46    38    32   ar
    47    45    39   ar
    48    11    12    1
@<TRIPOS>MOLECULE
*****
 45 48 0 0 0
SMALL
GASTEIGER

@<TRIPOS>ATOM
      1 C         139.2760  144.1052  161.8701 C.3     1  UNL1        0.0412
      2 C         140.2439  144.6992  160.8899 C.3     1  UNL1        0.0249
      3 C         140.2496  143.8362  159.6631 C.3     1  UNL1        0.0935
      4 N         139.2853  142.7088  159.8849 N.am    1  UNL1       -0.2795
      5 C         138.9769  141.6084  158.9134 C.2     1  UNL1        0.2256
      6 O         139.6609  141.5726  157.5789 O.2     1  UNL1       -0.2749
      7 C         138.6837  142.8751  161.2489 C.3     1  UNL1        0.0951
      8 C         138.9567  144.6464  163.2321 C.3     1  UNL1        0.0914
      9 O         141.7469  144.2610  164.2645 O.2     1  UNL1       -0.2701
     10 C         140.5914  143.6104  164.9655 C.2     1  UNL1        0.2458
     11 N         139.1962  143.8031  164.4493 N.am    1  UNL1       -0.3008
     12 H         138.4378  143.3761  164.9093 H       1  UNL1        0.1497
     13 C         140.8309  142.7671  166.1826 C.ar    1  UNL1        0.0533
     14 C         141.6343  141.5049  166.0743 C.ar    1  UNL1        0.0083
     15 C         141.8738  140.6616  167.2915 C.ar    1  UNL1        0.0715
     16 C         141.3100  141.0805  168.6170 C.ar    1  UNL1        0.0077
     17 C         140.5067  142.3426  168.7252 C.ar    1  UNL1        0.0715
     18 C         140.2672  143.1859  167.5080 C.ar    1  UNL1        0.0083
     19 C         142.6771  139.3995  167.1832 C.3     1  UNL1        0.4186
     20 F         143.4804  138.1374  167.0748 F       1  UNL1       -0.1659
     21 F         142.9531  139.4486  168.6568 F       1  UNL1       -0.1659
     22 F         142.4011  139.3504  165.7096 F       1  UNL1       -0.1659
     23 C         139.9430  142.7615  170.0506 C.3     1  UNL1        0.4186
     24 F         139.3792  143.1803  171.3760 F       1  UNL1       -0.1659
     25 F         140.8278  143.9727  170.0442 F       1  UNL1       -0.1659
     26 F         139.0581  141.5503  170.0570 F       1  UNL1       -0.1659
     27 C         137.9846  140.5437  159.2764 C.3     1  UNL1        0.0853
     28 C         138.3677  139.4574  160.2372 C.3     1  UNL1        0.0096
     29 C         139.6781  138.7448  160.0796 C.3     1  UNL1        0.0012
     30 C         140.3029  138.0548  161.2560 C.3     1  UNL1        0.0087
     31 C         140.6965  138.8465  162.4676 C.3     1  UNL1        0.0446
     32 C         139.8307  138.8235  163.6924 C.ar    1  UNL1       -0.0183
     33 C         139.7334  137.5755  164.5187 C.ar    1  UNL1       -0.0017
     34 C         138.8676  137.5525  165.7434 C.ar    1  UNL1        0.0293
     35 C         138.0993  138.7777  166.1418 C.ar    1  UNL1        0.1401
     36 F         137.2335  138.7547  167.3666 F       1  UNL1       -0.2042
     37 C         138.1967  140.0257  165.3155 C.ar    1  UNL1        0.0293
     38 C         139.0624  140.0486  164.0908 C.ar    1  UNL1       -0.0017
     39 C         141.9559  139.6611  162.4546 C.ar    1  UNL1       -0.0183
     40 C         141.8986  141.1255  162.1348 C.ar    1  UNL1       -0.0017
     41 C         143.1581  141.9402  162.1218 C.ar    1  UNL1        0.0293
     42 C         144.4748  141.2905  162.4286 C.ar    1  UNL1        0.1401
     43 F         145.7342  142.1052  162.4156 F       1  UNL1       -0.2042
     44 C         144.5321  139.8261  162.7485 C.ar    1  UNL1        0.0293
     45 C         143.2727  139.0114  162.7615 C.ar    1  UNL1       -0.0017
@<TRIPOS>BOND
     1     9    10    2
     2    10    11   am
     3    11     8    1
     4     8     1    1
     5     1     2    1
     6     2     3    1
     7     3     4    1
     8     4     5   am
     9     5     6    2
    10     5    27    1
    11    27    28    1
    12    28    29    1
    13    29    30    1
    14    30    31    1
    15    31    32    1
    16    32    33   ar
    17    33    34   ar
    18    34    35   ar
    19    35    36    1
    20    35    37   ar
    21    37    38   ar
    22    31    39    1
    23    39    40   ar
    24    40    41   ar
    25    41    42   ar
    26    42    43    1
    27    42    44   ar
    28    44    45   ar
    29     4     7    1
    30    10    13    1
    31    13    14   ar
    32    14    15   ar
    33    15    19    1
    34    19    20    1
    35    19    21    1
    36    19    22    1
    37    15    16   ar
    38    16    17   ar
    39    17    23    1
    40    23    24    1
    41    23    25    1
    42    23    26    1
    43    17    18   ar
    44     7     1    1
    45    18    13   ar
    46    38    32   ar
    47    45    39   ar
    48    11    12    1
@<TRIPOS>MOLECULE
*****
 45 48 0 0 0
SMALL
GASTEIGER

@<TRIPOS>ATOM
      1 C         138.5552  140.0022  161.5610 C.3     1  UNL1        0.0412
      2 C         138.1251  139.9589  160.1246 C.3     1  UNL1        0.0249
      3 C         138.4057  141.3008  159.5160 C.3     1  UNL1        0.0935
      4 N         139.0093  142.1735  160.5762 N.am    1  UNL1       -0.2795
      5 C         139.4442  143.5985  160.4030 C.2     1  UNL1        0.2256
      6 O         139.2891  144.2736  159.0725 O.2     1  UNL1       -0.2749
      7 C         139.1016  141.3709  161.8401 C.3     1  UNL1        0.0951
      8 C         138.4561  138.8747  162.5454 C.3     1  UNL1        0.0914
      9 O         138.1632  140.4241  165.0975 O.2     1  UNL1       -0.2701
     10 C         139.3360  139.5086  164.9063 C.2     1  UNL1        0.2458
     11 N         139.4824  138.7339  163.6303 N.am    1  UNL1       -0.3008
     12 H         140.2522  138.1331  163.5047 H       1  UNL1        0.1497
     13 C         140.3623  139.3679  165.9912 C.ar    1  UNL1        0.0533
     14 C         141.7635  138.9556  165.6492 C.ar    1  UNL1        0.0083
     15 C         142.7898  138.8149  166.7340 C.ar    1  UNL1        0.0715
     16 C         142.4149  139.0863  168.1609 C.ar    1  UNL1        0.0077
     17 C         141.0138  139.4985  168.5029 C.ar    1  UNL1        0.0715
     18 C         139.9875  139.6393  167.4180 C.ar    1  UNL1        0.0083
     19 C         144.1908  138.4027  166.3920 C.3     1  UNL1        0.4186
     20 F         145.5919  137.9905  166.0501 F       1  UNL1       -0.1659
     21 F         144.2596  139.4909  165.3620 F       1  UNL1       -0.1659
     22 F         144.1221  137.3144  167.4221 F       1  UNL1       -0.1659
     23 C         140.6390  139.7699  169.9297 C.3     1  UNL1        0.4186
     24 F         140.2641  140.0413  171.3565 F       1  UNL1       -0.1659
     25 F         142.0277  139.4054  170.3638 F       1  UNL1       -0.1659
     26 F         139.2502  140.1344  169.4955 F       1  UNL1       -0.1659
     27 C         140.0341  144.3487  161.5604 C.3     1  UNL1        0.0853
     28 C         139.1368  144.9372  162.6084 C.3     1  UNL1        0.0096
     29 C         139.4593  144.7523  164.0616 C.3     1  UNL1        0.0012
     30 C         139.7917  143.3878  164.5885 C.3     1  UNL1        0.0087
     31 C         141.1914  143.0734  165.0264 C.3     1  UNL1        0.0446
     32 C         142.2742  142.8920  164.0042 C.ar    1  UNL1       -0.0183
     33 C         143.1613  144.0450  163.6386 C.ar    1  UNL1       -0.0017
     34 C         144.2440  143.8635  162.6165 C.ar    1  UNL1        0.0293
     35 C         144.4397  142.5291  161.9600 C.ar    1  UNL1        0.1401
     36 F         145.5224  142.3476  160.9378 F       1  UNL1       -0.2042
     37 C         143.5526  141.3761  162.3256 C.ar    1  UNL1        0.0293
     38 C         142.4699  141.5576  163.3477 C.ar    1  UNL1       -0.0017
     39 C         141.5085  142.9405  166.4865 C.ar    1  UNL1       -0.0183
     40 C         140.4510  143.2222  167.5123 C.ar    1  UNL1       -0.0017
     41 C         140.7681  143.0893  168.9723 C.ar    1  UNL1        0.0293
     42 C         142.1426  142.6746  169.4066 C.ar    1  UNL1        0.1401
     43 F         142.4597  142.5416  170.8667 F       1  UNL1       -0.2042
     44 C         143.2002  142.3928  168.3808 C.ar    1  UNL1        0.0293
     45 C         142.8831  142.5257  166.9207 C.ar    1  UNL1       -0.0017
@<TRIPOS>BOND
     1     9    10    2
     2    10    11   am
     3    11     8    1
     4     8     1    1
     5     1     2    1
     6     2     3    1
     7     3     4    1
     8     4     5   am
     9     5     6    2
    10     5    27    1
    11    27    28    1
    12    28    29    1
    13    29    30    1
    14    30    31    1
    15    31    32    1
    16    32    33   ar
    17    33    34   ar
    18    34    35   ar
    19    35    36    1
    20    35    37   ar
    21    37    38   ar
    22    31    39    1
    23    39    40   ar
    24    40    41   ar
    25    41    42   ar
    26    42    43    1
    27    42    44   ar
    28    44    45   ar
    29     4     7    1
    30    10    13    1
    31    13    14   ar
    32    14    15   ar
    33    15    19    1
    34    19    20    1
    35    19    21    1
    36    19    22    1
    37    15    16   ar
    38    16    17   ar
    39    17    23    1
    40    23    24    1
    41    23    25    1
    42    23    26    1
    43    17    18   ar
    44     7     1    1
    45    18    13   ar
    46    38    32   ar
    47    45    39   ar
    48    11    12    1
@<TRIPOS>MOLECULE
*****
 45 48 0 0 0
SMALL
GASTEIGER

@<TRIPOS>ATOM
      1 C         138.6162  140.2014  161.4815 C.3     1  UNL1        0.0412
      2 C         138.2443  140.1626  160.0288 C.3     1  UNL1        0.0249
      3 C         138.5490  141.5065  159.4363 C.3     1  UNL1        0.0935
      4 N         139.1092  142.3759  160.5227 N.am    1  UNL1       -0.2795
      5 C         139.5504  143.8015  160.3716 C.2     1  UNL1        0.2256
      6 O         139.4489  144.4808  159.0381 O.2     1  UNL1       -0.2749
      7 C         139.1508  141.5693  161.7867 C.3     1  UNL1        0.0951
      8 C         138.4779  139.0709  162.4575 C.3     1  UNL1        0.0914
      9 O         138.1446  140.5290  165.0580 O.2     1  UNL1       -0.2701
     10 C         139.3233  139.6247  164.8510 C.2     1  UNL1        0.2458
     11 N         139.4900  138.8957  163.5507 N.am    1  UNL1       -0.3008
     12 H         140.2636  138.3022  163.4148 H       1  UNL1        0.1497
     13 C         140.3354  139.4496  165.9441 C.ar    1  UNL1        0.0533
     14 C         141.7370  139.0332  165.6089 C.ar    1  UNL1        0.0083
     15 C         142.7491  138.8580  166.7021 C.ar    1  UNL1        0.0715
     16 C         142.3596  139.0992  168.1305 C.ar    1  UNL1        0.0077
     17 C         140.9581  139.5156  168.4656 C.ar    1  UNL1        0.0715
     18 C         139.9460  139.6907  167.3725 C.ar    1  UNL1        0.0083
     19 C         144.1506  138.4417  166.3669 C.3     1  UNL1        0.4186
     20 F         145.5521  138.0252  166.0317 F       1  UNL1       -0.1659
     21 F         144.2301  139.5342  165.3422 F       1  UNL1       -0.1659
     22 F         144.0711  137.3490  167.3916 F       1  UNL1       -0.1659
     23 C         140.5687  139.7567  169.8940 C.3     1  UNL1        0.4186
     24 F         140.1792  139.9979  171.3223 F       1  UNL1       -0.1659
     25 F         141.9441  139.3545  170.3369 F       1  UNL1       -0.1659
     26 F         139.1932  140.1590  169.4510 F       1  UNL1       -0.1659
     27 C         140.0931  144.5480  161.5542 C.3     1  UNL1        0.0853
     28 C         139.1590  145.0658  162.6074 C.3     1  UNL1        0.0096
     29 C         139.4722  144.8514  164.0586 C.3     1  UNL1        0.0012
     30 C         139.7937  143.4751  164.5611 C.3     1  UNL1        0.0087
     31 C         141.1934  143.1384  164.9822 C.3     1  UNL1        0.0446
     32 C         141.5201  142.9748  166.4371 C.ar    1  UNL1       -0.0183
     33 C         142.8963  142.5473  166.8533 C.ar    1  UNL1       -0.0017
     34 C         143.2229  142.3838  168.3082 C.ar    1  UNL1        0.0293
     35 C         142.1733  142.6478  169.3468 C.ar    1  UNL1        0.1401
     36 F         142.5000  142.4843  170.8016 F       1  UNL1       -0.2042
     37 C         140.7972  143.0754  168.9306 C.ar    1  UNL1        0.0293
     38 C         140.4705  143.2389  167.4757 C.ar    1  UNL1       -0.0017
     39 C         142.2665  142.9652  163.9486 C.ar    1  UNL1       -0.0183
     40 C         142.4446  141.6410  163.2669 C.ar    1  UNL1       -0.0017
     41 C         143.5176  141.4678  162.2333 C.ar    1  UNL1        0.0293
     42 C         144.4127  142.6189  161.8812 C.ar    1  UNL1        0.1401
     43 F         145.4857  142.4457  160.8475 F       1  UNL1       -0.2042
     44 C         144.2346  143.9432  162.5629 C.ar    1  UNL1        0.0293
     45 C         143.1615  144.1163  163.5965 C.ar    1  UNL1       -0.0017
@<TRIPOS>BOND
     1     9    10    2
     2    10    11   am
     3    11     8    1
     4     8     1    1
     5     1     2    1
     6     2     3    1
     7     3     4    1
     8     4     5   am
     9     5     6    2
    10     5    27    1
    11    27    28    1
    12    28    29    1
    13    29    30    1
    14    30    31    1
    15    31    32    1
    16    32    33   ar
    17    33    34   ar
    18    34    35   ar
    19    35    36    1
    20    35    37   ar
    21    37    38   ar
    22    31    39    1
    23    39    40   ar
    24    40    41   ar
    25    41    42   ar
    26    42    43    1
    27    42    44   ar
    28    44    45   ar
    29     4     7    1
    30    10    13    1
    31    13    14   ar
    32    14    15   ar
    33    15    19    1
    34    19    20    1
    35    19    21    1
    36    19    22    1
    37    15    16   ar
    38    16    17   ar
    39    17    23    1
    40    23    24    1
    41    23    25    1
    42    23    26    1
    43    17    18   ar
    44     7     1    1
    45    18    13   ar
    46    38    32   ar
    47    45    39   ar
    48    11    12    1
@<TRIPOS>MOLECULE
*****
 45 48 0 0 0
SMALL
GASTEIGER

@<TRIPOS>ATOM
      1 C         140.1256  144.3879  160.7959 C.3     1  UNL1        0.0412
      2 C         140.8039  145.4621  159.9984 C.3     1  UNL1        0.0249
      3 C         141.5838  144.8018  158.9003 C.3     1  UNL1        0.0935
      4 N         141.3874  143.3195  159.0191 N.am    1  UNL1       -0.2795
      5 C         141.9870  142.2762  158.1236 C.2     1  UNL1        0.2256
      6 O         142.8742  142.6848  156.9853 O.2     1  UNL1       -0.2749
      7 C         140.4863  143.0637  160.1906 C.3     1  UNL1        0.0951
      8 C         139.2418  144.6005  161.9891 C.3     1  UNL1        0.0914
      9 O         138.3911  141.7620  162.4568 O.2     1  UNL1       -0.2701
     10 C         139.1374  142.5067  163.5237 C.2     1  UNL1        0.2458
     11 N         139.5628  143.9260  163.2899 N.am    1  UNL1       -0.3008
     12 H         140.0526  144.4148  163.9901 H       1  UNL1        0.1497
     13 C         139.4584  141.8322  164.8245 C.ar    1  UNL1        0.0533
     14 C         138.5650  140.7461  165.3466 C.ar    1  UNL1        0.0083
     15 C         138.8860  140.0716  166.6474 C.ar    1  UNL1        0.0715
     16 C         140.1003  140.4831  167.4261 C.ar    1  UNL1        0.0077
     17 C         140.9935  141.5692  166.9040 C.ar    1  UNL1        0.0715
     18 C         140.6726  142.2437  165.6032 C.ar    1  UNL1        0.0083
     19 C         137.9927  138.9856  167.1694 C.3     1  UNL1        0.4186
     20 F         137.0994  137.8996  167.6914 F       1  UNL1       -0.1659
     21 F         138.2946  139.4130  168.5752 F       1  UNL1       -0.1659
     22 F         137.6908  138.5582  165.7636 F       1  UNL1       -0.1659
     23 C         142.2077  141.9807  167.6827 C.3     1  UNL1        0.4186
     24 F         143.4219  142.3922  168.4613 F       1  UNL1       -0.1659
     25 F         141.4061  143.0465  168.3693 F       1  UNL1       -0.1659
     26 F         143.0093  140.9149  166.9960 F       1  UNL1       -0.1659
     27 C         141.6994  140.8241  158.3665 C.3     1  UNL1        0.0853
     28 C         142.5628  140.0354  159.3059 C.3     1  UNL1        0.0096
     29 C         143.6865  140.7091  160.0361 C.3     1  UNL1        0.0012
     30 C         144.1384  140.1834  161.3664 C.3     1  UNL1        0.0087
     31 C         143.3966  140.5622  162.6138 C.3     1  UNL1        0.0446
     32 C         143.6075  141.9131  163.2309 C.ar    1  UNL1       -0.0183
     33 C         144.4444  142.0501  164.4681 C.ar    1  UNL1       -0.0017
     34 C         144.6553  143.4010  165.0851 C.ar    1  UNL1        0.0293
     35 C         144.0293  144.6148  164.4648 C.ar    1  UNL1        0.1401
     36 F         144.2402  145.9657  165.0818 F       1  UNL1       -0.2042
     37 C         143.1924  144.4778  163.2276 C.ar    1  UNL1        0.0293
     38 C         142.9815  143.1269  162.6106 C.ar    1  UNL1       -0.0017
     39 C         142.4439  139.5902  163.2443 C.ar    1  UNL1       -0.0183
     40 C         141.0996  139.3483  162.6243 C.ar    1  UNL1       -0.0017
     41 C         140.1469  138.3763  163.2548 C.ar    1  UNL1        0.0293
     42 C         140.5384  137.6462  164.5053 C.ar    1  UNL1        0.1401
     43 F         139.5856  136.6742  165.1357 F       1  UNL1       -0.2042
     44 C         141.8827  137.8881  165.1253 C.ar    1  UNL1        0.0293
     45 C         142.8354  138.8601  164.4948 C.ar    1  UNL1       -0.0017
@<TRIPOS>BOND
     1     9    10    2
     2    10    11   am
     3    11     8    1
     4     8     1    1
     5     1     2    1
     6     2     3    1
     7     3     4    1
     8     4     5   am
     9     5     6    2
    10     5    27    1
    11    27    28    1
    12    28    29    1
    13    29    30    1
    14    30    31    1
    15    31    32    1
    16    32    33   ar
    17    33    34   ar
    18    34    35   ar
    19    35    36    1
    20    35    37   ar
    21    37    38   ar
    22    31    39    1
    23    39    40   ar
    24    40    41   ar
    25    41    42   ar
    26    42    43    1
    27    42    44   ar
    28    44    45   ar
    29     4     7    1
    30    10    13    1
    31    13    14   ar
    32    14    15   ar
    33    15    19    1
    34    19    20    1
    35    19    21    1
    36    19    22    1
    37    15    16   ar
    38    16    17   ar
    39    17    23    1
    40    23    24    1
    41    23    25    1
    42    23    26    1
    43    17    18   ar
    44     7     1    1
    45    18    13   ar
    46    38    32   ar
    47    45    39   ar
    48    11    12    1
@<TRIPOS>MOLECULE
*****
 45 48 0 0 0
SMALL
GASTEIGER

@<TRIPOS>ATOM
      1 C         139.2941  144.1102  161.9054 C.3     1  UNL1        0.0412
      2 C         140.3325  144.7200  161.0110 C.3     1  UNL1        0.0249
      3 C         140.3931  143.9086  159.7509 C.3     1  UNL1        0.0935
      4 N         139.3923  142.7974  159.8664 N.am    1  UNL1       -0.2795
      5 C         139.1187  141.7461  158.8321 C.2     1  UNL1        0.2256
      6 O         139.8811  141.7486  157.5403 O.2     1  UNL1       -0.2749
      7 C         138.7130  142.9219  161.1980 C.3     1  UNL1        0.0951
      8 C         138.9051  144.6022  163.2680 C.3     1  UNL1        0.0914
      9 O         141.6998  144.2689  164.3063 O.2     1  UNL1       -0.2701
     10 C         140.5574  143.5818  164.9939 C.2     1  UNL1        0.2458
     11 N         139.1600  143.7485  164.4747 N.am    1  UNL1       -0.3008
     12 H         138.4101  143.2976  164.9260 H       1  UNL1        0.1497
     13 C         140.8123  142.7281  166.2007 C.ar    1  UNL1        0.0533
     14 C         140.2539  143.1285  167.5341 C.ar    1  UNL1        0.0083
     15 C         140.5088  142.2748  168.7409 C.ar    1  UNL1        0.0715
     16 C         141.3221  141.0207  168.6142 C.ar    1  UNL1        0.0077
     17 C         141.8803  140.6204  167.2807 C.ar    1  UNL1        0.0715
     18 C         141.6254  141.4741  166.0740 C.ar    1  UNL1        0.0083
     19 C         139.9505  142.6752  170.0742 C.3     1  UNL1        0.4186
     20 F         139.3922  143.0756  171.4076 F       1  UNL1       -0.1659
     21 F         139.2976  141.3310  170.2046 F       1  UNL1       -0.1659
     22 F         140.6034  144.0194  169.9440 F       1  UNL1       -0.1659
     23 C         142.6935  139.3663  167.1541 C.3     1  UNL1        0.4186
     24 F         143.5067  138.1123  167.0274 F       1  UNL1       -0.1659
     25 F         142.6090  139.1616  168.6376 F       1  UNL1       -0.1659
     26 F         142.7781  139.5710  165.6705 F       1  UNL1       -0.1659
     27 C         138.0826  140.6923  159.0894 C.3     1  UNL1        0.0853
     28 C         138.4144  139.5082  159.9482 C.3     1  UNL1        0.0096
     29 C         139.8208  138.9892  159.9990 C.3     1  UNL1        0.0012
     30 C         140.2943  138.2219  161.1979 C.3     1  UNL1        0.0087
     31 C         140.7068  138.9526  162.4411 C.3     1  UNL1        0.0446
     32 C         139.8357  138.9074  163.6616 C.ar    1  UNL1       -0.0183
     33 C         139.0536  140.1204  164.0701 C.ar    1  UNL1       -0.0017
     34 C         138.1827  140.0752  165.2904 C.ar    1  UNL1        0.0293
     35 C         138.0938  138.8170  166.1023 C.ar    1  UNL1        0.1401
     36 F         137.2227  138.7719  167.3227 F       1  UNL1       -0.2042
     37 C         138.8758  137.6041  165.6937 C.ar    1  UNL1        0.0293
     38 C         139.7468  137.6493  164.4734 C.ar    1  UNL1       -0.0017
     39 C         141.9903  139.7285  162.4641 C.ar    1  UNL1       -0.0183
     40 C         143.2896  139.0218  162.7136 C.ar    1  UNL1       -0.0017
     41 C         144.5731  139.7977  162.7366 C.ar    1  UNL1        0.0293
     42 C         144.5573  141.2804  162.5101 C.ar    1  UNL1        0.1401
     43 F         145.8408  142.0563  162.5330 F       1  UNL1       -0.2042
     44 C         143.2580  141.9872  162.2605 C.ar    1  UNL1        0.0293
     45 C         141.9744  141.2113  162.2376 C.ar    1  UNL1       -0.0017
@<TRIPOS>BOND
     1     9    10    2
     2    10    11   am
     3    11     8    1
     4     8     1    1
     5     1     2    1
     6     2     3    1
     7     3     4    1
     8     4     5   am
     9     5     6    2
    10     5    27    1
    11    27    28    1
    12    28    29    1
    13    29    30    1
    14    30    31    1
    15    31    32    1
    16    32    33   ar
    17    33    34   ar
    18    34    35   ar
    19    35    36    1
    20    35    37   ar
    21    37    38   ar
    22    31    39    1
    23    39    40   ar
    24    40    41   ar
    25    41    42   ar
    26    42    43    1
    27    42    44   ar
    28    44    45   ar
    29     4     7    1
    30    10    13    1
    31    13    14   ar
    32    14    15   ar
    33    15    19    1
    34    19    20    1
    35    19    21    1
    36    19    22    1
    37    15    16   ar
    38    16    17   ar
    39    17    23    1
    40    23    24    1
    41    23    25    1
    42    23    26    1
    43    17    18   ar
    44     7     1    1
    45    18    13   ar
    46    38    32   ar
    47    45    39   ar
    48    11    12    1
@<TRIPOS>MOLECULE
*****
 45 48 0 0 0
SMALL
GASTEIGER

@<TRIPOS>ATOM
      1 C         138.4961  139.6525  161.6641 C.3     1  UNL1        0.0412
      2 C         138.0609  139.5478  160.2324 C.3     1  UNL1        0.0249
      3 C         138.2660  140.8860  159.5866 C.3     1  UNL1        0.0935
      4 N         138.8278  141.8178  160.6191 N.am    1  UNL1       -0.2795
      5 C         139.1847  143.2589  160.4052 C.2     1  UNL1        0.2256
      6 O         138.9863  143.8888  159.0584 O.2     1  UNL1       -0.2749
      7 C         138.9700  141.0554  161.9031 C.3     1  UNL1        0.0951
      8 C         138.4630  138.5481  162.6786 C.3     1  UNL1        0.0914
      9 O         138.1642  140.1695  165.1850 O.2     1  UNL1       -0.2701
     10 C         139.3648  139.2896  164.9996 C.2     1  UNL1        0.2458
     11 N         139.5142  138.4790  163.7465 N.am    1  UNL1       -0.3008
     12 H         140.3023  137.9015  163.6248 H       1  UNL1        0.1497
     13 C         140.4160  139.2205  166.0674 C.ar    1  UNL1        0.0533
     14 C         140.0644  139.5486  167.4884 C.ar    1  UNL1        0.0083
     15 C         141.1157  139.4794  168.5562 C.ar    1  UNL1        0.0715
     16 C         142.5184  139.0822  168.2031 C.ar    1  UNL1        0.0077
     17 C         142.8699  138.7541  166.7822 C.ar    1  UNL1        0.0715
     18 C         141.8187  138.8233  165.7144 C.ar    1  UNL1        0.0083
     19 C         140.7641  139.8074  169.9770 C.3     1  UNL1        0.4186
     20 F         140.4126  140.1355  171.3978 F       1  UNL1       -0.1659
     21 F         139.3685  140.1555  169.5514 F       1  UNL1       -0.1659
     22 F         142.1598  139.4594  170.4026 F       1  UNL1       -0.1659
     23 C         144.2726  138.3569  166.4292 C.3     1  UNL1        0.4186
     24 F         145.6753  137.9597  166.0762 F       1  UNL1       -0.1659
     25 F         144.2162  137.2549  167.4452 F       1  UNL1       -0.1659
     26 F         144.3289  139.4589  165.4132 F       1  UNL1       -0.1659
     27 C         139.7400  144.0702  161.5382 C.3     1  UNL1        0.0853
     28 C         138.8312  144.5586  162.6269 C.3     1  UNL1        0.0096
     29 C         139.2609  144.4646  164.0610 C.3     1  UNL1        0.0012
     30 C         139.6872  143.1443  164.6312 C.3     1  UNL1        0.0087
     31 C         141.1104  142.9353  165.0563 C.3     1  UNL1        0.0446
     32 C         141.4567  142.8762  166.5146 C.ar    1  UNL1       -0.0183
     33 C         140.4244  143.2254  167.5453 C.ar    1  UNL1       -0.0017
     34 C         140.7707  143.1663  169.0036 C.ar    1  UNL1        0.0293
     35 C         142.1493  142.7580  169.4311 C.ar    1  UNL1        0.1401
     36 F         142.4956  142.6989  170.8894 F       1  UNL1       -0.2042
     37 C         143.1816  142.4088  168.4004 C.ar    1  UNL1        0.0293
     38 C         142.8353  142.4679  166.9421 C.ar    1  UNL1       -0.0017
     39 C         142.1874  142.7855  164.0230 C.ar    1  UNL1       -0.0183
     40 C         142.4337  141.4507  163.3845 C.ar    1  UNL1       -0.0017
     41 C         143.5107  141.3009  162.3513 C.ar    1  UNL1        0.0293
     42 C         144.3415  142.4857  161.9566 C.ar    1  UNL1        0.1401
     43 F         145.4185  142.3359  160.9233 F       1  UNL1       -0.2042
     44 C         144.0952  143.8206  162.5951 C.ar    1  UNL1        0.0293
     45 C         143.0182  143.9704  163.6283 C.ar    1  UNL1       -0.0017
@<TRIPOS>BOND
     1     9    10    2
     2    10    11   am
     3    11     8    1
     4     8     1    1
     5     1     2    1
     6     2     3    1
     7     3     4    1
     8     4     5   am
     9     5     6    2
    10     5    27    1
    11    27    28    1
    12    28    29    1
    13    29    30    1
    14    30    31    1
    15    31    32    1
    16    32    33   ar
    17    33    34   ar
    18    34    35   ar
    19    35    36    1
    20    35    37   ar
    21    37    38   ar
    22    31    39    1
    23    39    40   ar
    24    40    41   ar
    25    41    42   ar
    26    42    43    1
    27    42    44   ar
    28    44    45   ar
    29     4     7    1
    30    10    13    1
    31    13    14   ar
    32    14    15   ar
    33    15    19    1
    34    19    20    1
    35    19    21    1
    36    19    22    1
    37    15    16   ar
    38    16    17   ar
    39    17    23    1
    40    23    24    1
    41    23    25    1
    42    23    26    1
    43    17    18   ar
    44     7     1    1
    45    18    13   ar
    46    38    32   ar
    47    45    39   ar
    48    11    12    1
