@<TRIPOS>MOLECULE
*****
 29 32 0 0 0
SMALL
GASTEIGER

@<TRIPOS>ATOM
      1 C         139.7285  139.4318  164.3966 C.ar    1  UNL1        0.1014
      2 C         139.0998  138.1313  163.9926 C.ar    1  UNL1        0.0240
      3 C         138.4194  138.0088  162.6614 C.ar    1  UNL1        0.0404
      4 C         138.3678  139.1869  161.7343 C.ar    1  UNL1        0.1639
      5 N         137.7715  139.3646  160.3694 N.ar    1  UNL1       -0.2234
      6 C         138.0318  140.7750  159.9299 C.ar    1  UNL1        0.1197
      7 C         138.7889  141.4689  161.0232 C.ar    1  UNL1        0.1036
      8 N         138.9966  140.4874  162.1384 N.ar    1  UNL1       -0.2107
      9 N         139.6769  140.6098  163.4696 N.ar    1  UNL1       -0.1638
     10 C         141.7697  139.7992  168.3903 C.ar    1  UNL1        0.1057
     11 C         142.5526  139.3715  167.1844 C.ar    1  UNL1        0.0184
     12 C         141.8722  139.2490  165.8532 C.ar    1  UNL1        0.0029
     13 C         140.4090  139.5542  165.7279 C.ar    1  UNL1        0.0194
     14 C         139.6261  139.9820  166.9337 C.ar    1  UNL1        0.0029
     15 C         140.3064  140.1045  168.2649 C.ar    1  UNL1        0.0184
     16 C         143.1304  140.0442  171.0527 C.3     1  UNL1        0.1816
     17 S         142.4500  139.9217  169.7215 S.O2    1  UNL1        0.0104
     18 O         143.0136  138.5410  169.5605 O.2     1  UNL1       -0.1686
     19 O         141.8864  141.3024  169.8825 O.2     1  UNL1       -0.1686
     20 C         139.2563  142.8941  161.0047 C.ar    1  UNL1        0.0206
     21 C         138.9451  143.8005  162.1586 C.ar    1  UNL1        0.0016
     22 C         139.4125  145.2257  162.1400 C.ar    1  UNL1        0.0014
     23 C         140.1911  145.7445  160.9676 C.ar    1  UNL1        0.0183
     24 C         140.5023  144.8381  159.8137 C.ar    1  UNL1        0.1058
     25 C         140.0349  143.4129  159.8323 C.ar    1  UNL1        0.0199
     26 S         141.2809  145.3568  158.6412 S.O2    1  UNL1        0.0104
     27 C         142.0594  145.8756  157.4687 C.3     1  UNL1        0.1816
     28 O         142.4994  144.6309  159.1291 O.2     1  UNL1       -0.1686
     29 O         140.0623  146.0827  158.1532 O.2     1  UNL1       -0.1686
@<TRIPOS>BOND
     1    16    17    1
     2    17    18    2
     3    17    19    2
     4    17    10    1
     5    10    11   ar
     6    11    12   ar
     7    12    13   ar
     8    13     1    1
     9     1     2   ar
    10     2     3   ar
    11     3     4   ar
    12     4     5   ar
    13     5     6   ar
    14     6     7   ar
    15     7    20    1
    16    20    21   ar
    17    21    22   ar
    18    22    23   ar
    19    23    24   ar
    20    24    26    1
    21    26    27    1
    22    26    28    2
    23    26    29    2
    24    24    25   ar
    25     7     8   ar
    26     8     9   ar
    27    13    14   ar
    28    14    15   ar
    29    15    10   ar
    30     9     1   ar
    31     8     4   ar
    32    25    20   ar
@<TRIPOS>MOLECULE
*****
 29 32 0 0 0
SMALL
GASTEIGER

@<TRIPOS>ATOM
      1 C         140.0229  138.9901  164.3885 C.ar    1  UNL1        0.1014
      2 C         138.9260  138.0055  164.1103 C.ar    1  UNL1        0.0240
      3 C         138.5976  137.6285  162.6961 C.ar    1  UNL1        0.0404
      4 C         139.3661  138.2360  161.5602 C.ar    1  UNL1        0.1639
      5 N         139.2687  138.0583  160.0739 N.ar    1  UNL1       -0.2234
      6 C         140.3054  138.9331  159.4336 C.ar    1  UNL1        0.1197
      7 C         141.0435  139.6514  160.5241 C.ar    1  UNL1        0.1036
      8 N         140.4629  139.2206  161.8384 N.ar    1  UNL1       -0.2107
      9 N         140.7913  139.5977  163.2526 N.ar    1  UNL1       -0.1638
     10 C         141.0082  140.1214  168.6312 C.ar    1  UNL1        0.1057
     11 C         139.5790  140.0858  168.1771 C.ar    1  UNL1        0.0184
     12 C         139.2506  139.7087  166.7628 C.ar    1  UNL1        0.0029
     13 C         140.3513  139.3673  165.8028 C.ar    1  UNL1        0.0194
     14 C         141.7805  139.4029  166.2568 C.ar    1  UNL1        0.0029
     15 C         142.1089  139.7799  167.6710 C.ar    1  UNL1        0.0184
     16 C         141.6651  140.8756  171.4595 C.3     1  UNL1        0.1816
     17 S         141.3367  140.4985  170.0453 S.O2    1  UNL1        0.0104
     18 O         140.3102  139.5248  170.5434 O.2     1  UNL1       -0.1686
     19 O         142.3632  141.4722  169.5472 O.2     1  UNL1       -0.1686
     20 C         142.1651  140.6290  160.3338 C.ar    1  UNL1        0.0206
     21 C         143.0646  140.5151  159.1388 C.ar    1  UNL1        0.0016
     22 C         144.1863  141.4927  158.9485 C.ar    1  UNL1        0.0014
     23 C         144.4085  142.5841  159.9531 C.ar    1  UNL1        0.0183
     24 C         143.5091  142.6980  161.1481 C.ar    1  UNL1        0.1058
     25 C         142.3874  141.7205  161.3384 C.ar    1  UNL1        0.0199
     26 S         143.7313  143.7895  162.1528 S.O2    1  UNL1        0.0104
     27 C         143.9534  144.8810  163.1574 C.3     1  UNL1        0.1816
     28 O         144.8333  142.9880  162.7798 O.2     1  UNL1       -0.1686
     29 O         142.6293  144.5909  161.5258 O.2     1  UNL1       -0.1686
@<TRIPOS>BOND
     1    16    17    1
     2    17    18    2
     3    17    19    2
     4    17    10    1
     5    10    11   ar
     6    11    12   ar
     7    12    13   ar
     8    13     1    1
     9     1     2   ar
    10     2     3   ar
    11     3     4   ar
    12     4     5   ar
    13     5     6   ar
    14     6     7   ar
    15     7    20    1
    16    20    21   ar
    17    21    22   ar
    18    22    23   ar
    19    23    24   ar
    20    24    26    1
    21    26    27    1
    22    26    28    2
    23    26    29    2
    24    24    25   ar
    25     7     8   ar
    26     8     9   ar
    27    13    14   ar
    28    14    15   ar
    29    15    10   ar
    30     9     1   ar
    31     8     4   ar
    32    25    20   ar
@<TRIPOS>MOLECULE
*****
 29 32 0 0 0
SMALL
GASTEIGER

@<TRIPOS>ATOM
      1 C         140.4334  143.0632  164.9044 C.ar    1  UNL1        0.1014
      2 C         139.3824  144.0971  165.1809 C.ar    1  UNL1        0.0240
      3 C         138.9316  145.0192  164.0871 C.ar    1  UNL1        0.0404
      4 C         139.5318  144.9075  162.7170 C.ar    1  UNL1        0.1639
      5 N         139.2889  145.6721  161.4494 N.ar    1  UNL1       -0.2234
      6 C         140.1899  145.1107  160.3897 C.ar    1  UNL1        0.1197
      7 C         140.9895  143.9992  161.0022 C.ar    1  UNL1        0.1036
      8 N         140.5827  143.8736  162.4405 N.ar    1  UNL1       -0.2107
      9 N         141.0336  142.9514  163.5343 N.ar    1  UNL1       -0.1638
     10 C         141.7860  140.2965  168.1857 C.ar    1  UNL1        0.1057
     11 C         140.3700  140.2408  167.6939 C.ar    1  UNL1        0.0184
     12 C         139.9192  141.1631  166.6001 C.ar    1  UNL1        0.0029
     13 C         140.8843  142.1409  165.9982 C.ar    1  UNL1        0.0194
     14 C         142.3003  142.1966  166.4900 C.ar    1  UNL1        0.0029
     15 C         142.7512  141.2744  167.5837 C.ar    1  UNL1        0.0184
     16 C         142.6878  138.4522  170.3731 C.3     1  UNL1        0.1816
     17 S         142.2369  139.3743  169.2794 S.O2    1  UNL1        0.0104
     18 O         141.2469  140.0010  170.2159 O.2     1  UNL1       -0.1686
     19 O         143.2269  138.7476  168.3429 O.2     1  UNL1       -0.1686
     20 C         142.0157  143.1605  160.2998 C.ar    1  UNL1        0.0206
     21 C         142.7310  143.7014  159.0974 C.ar    1  UNL1        0.0016
     22 C         143.7572  142.8627  158.3950 C.ar    1  UNL1        0.0014
     23 C         144.0682  141.4830  158.8948 C.ar    1  UNL1        0.0183
     24 C         143.3528  140.9421  160.0972 C.ar    1  UNL1        0.1058
     25 C         142.3266  141.7808  160.7996 C.ar    1  UNL1        0.0199
     26 S         143.6637  139.5624  160.5972 S.O2    1  UNL1        0.0104
     27 C         143.9746  138.1827  161.0970 C.3     1  UNL1        0.1816
     28 O         143.4531  140.0262  162.0080 O.2     1  UNL1       -0.1686
     29 O         143.8743  139.0987  159.1863 O.2     1  UNL1       -0.1686
@<TRIPOS>BOND
     1    16    17    1
     2    17    18    2
     3    17    19    2
     4    17    10    1
     5    10    11   ar
     6    11    12   ar
     7    12    13   ar
     8    13     1    1
     9     1     2   ar
    10     2     3   ar
    11     3     4   ar
    12     4     5   ar
    13     5     6   ar
    14     6     7   ar
    15     7    20    1
    16    20    21   ar
    17    21    22   ar
    18    22    23   ar
    19    23    24   ar
    20    24    26    1
    21    26    27    1
    22    26    28    2
    23    26    29    2
    24    24    25   ar
    25     7     8   ar
    26     8     9   ar
    27    13    14   ar
    28    14    15   ar
    29    15    10   ar
    30     9     1   ar
    31     8     4   ar
    32    25    20   ar
@<TRIPOS>MOLECULE
*****
 29 32 0 0 0
SMALL
GASTEIGER

@<TRIPOS>ATOM
      1 C         139.6567  139.2692  164.6381 C.ar    1  UNL1        0.1014
      2 C         139.1278  137.9136  164.2745 C.ar    1  UNL1        0.0240
      3 C         138.8232  137.5866  162.8426 C.ar    1  UNL1        0.0404
      4 C         139.0477  138.6154  161.7743 C.ar    1  UNL1        0.1639
      5 N         138.8403  138.5818  160.2891 N.ar    1  UNL1       -0.2234
      6 C         139.2411  139.9167  159.7348 C.ar    1  UNL1        0.1197
      7 C         139.6963  140.7753  160.8774 C.ar    1  UNL1        0.1036
      8 N         139.5767  139.9711  162.1379 N.ar    1  UNL1       -0.2107
      9 N         139.8812  140.2980  163.5698 N.ar    1  UNL1       -0.1638
     10 C         140.5704  140.2502  168.9339 C.ar    1  UNL1        0.1057
     11 C         139.1662  139.9202  168.5222 C.ar    1  UNL1        0.0184
     12 C         138.8617  139.5932  167.0903 C.ar    1  UNL1        0.0029
     13 C         139.9613  139.5962  166.0701 C.ar    1  UNL1        0.0194
     14 C         141.3654  139.9262  166.4817 C.ar    1  UNL1        0.0029
     15 C         141.6700  140.2532  167.9136 C.ar    1  UNL1        0.0184
     16 C         141.1795  140.9041  171.7976 C.3     1  UNL1        0.1816
     17 S         140.8749  140.5771  170.3658 S.O2    1  UNL1        0.0104
     18 O         139.6137  139.8860  170.7918 O.2     1  UNL1       -0.1686
     19 O         142.1362  141.2682  169.9397 O.2     1  UNL1       -0.1686
     20 C         140.1851  142.1899  160.7772 C.ar    1  UNL1        0.0206
     21 C         139.6550  143.0923  159.7026 C.ar    1  UNL1        0.0016
     22 C         140.1438  144.5068  159.6024 C.ar    1  UNL1        0.0014
     23 C         141.1628  145.0191  160.5767 C.ar    1  UNL1        0.0183
     24 C         141.6929  144.1167  161.6513 C.ar    1  UNL1        0.1058
     25 C         141.2040  142.7022  161.7515 C.ar    1  UNL1        0.0199
     26 S         142.7119  144.6289  162.6257 S.O2    1  UNL1        0.0104
     27 C         143.7309  145.1411  163.6000 C.3     1  UNL1        0.1816
     28 O         141.6144  145.2050  163.4705 O.2     1  UNL1       -0.1686
     29 O         143.8093  144.0529  161.7808 O.2     1  UNL1       -0.1686
@<TRIPOS>BOND
     1    16    17    1
     2    17    18    2
     3    17    19    2
     4    17    10    1
     5    10    11   ar
     6    11    12   ar
     7    12    13   ar
     8    13     1    1
     9     1     2   ar
    10     2     3   ar
    11     3     4   ar
    12     4     5   ar
    13     5     6   ar
    14     6     7   ar
    15     7    20    1
    16    20    21   ar
    17    21    22   ar
    18    22    23   ar
    19    23    24   ar
    20    24    26    1
    21    26    27    1
    22    26    28    2
    23    26    29    2
    24    24    25   ar
    25     7     8   ar
    26     8     9   ar
    27    13    14   ar
    28    14    15   ar
    29    15    10   ar
    30     9     1   ar
    31     8     4   ar
    32    25    20   ar
@<TRIPOS>MOLECULE
*****
 29 32 0 0 0
SMALL
GASTEIGER

@<TRIPOS>ATOM
      1 C         141.0175  144.0303  163.5311 C.ar    1  UNL1        0.1014
      2 C         140.0407  145.1686  163.5340 C.ar    1  UNL1        0.0240
      3 C         139.6159  145.7955  162.2392 C.ar    1  UNL1        0.0404
      4 C         140.1679  145.2842  160.9416 C.ar    1  UNL1        0.1639
      5 N         139.9359  145.6995  159.5190 N.ar    1  UNL1       -0.2234
      6 C         140.7694  144.8179  158.6370 C.ar    1  UNL1        0.1197
      7 C         141.5165  143.8577  159.5144 C.ar    1  UNL1        0.1036
      8 N         141.1448  144.1459  160.9388 N.ar    1  UNL1       -0.2107
      9 N         141.5696  143.5190  162.2335 N.ar    1  UNL1       -0.1638
     10 C         142.2920  142.1492  167.4155 C.ar    1  UNL1        0.1057
     11 C         143.3051  142.4102  166.3405 C.ar    1  UNL1        0.0184
     12 C         142.8802  143.0372  165.0457 C.ar    1  UNL1        0.0029
     13 C         141.4423  143.4033  164.8259 C.ar    1  UNL1        0.0194
     14 C         140.4292  143.1423  165.9009 C.ar    1  UNL1        0.0029
     15 C         140.8540  142.5154  167.1956 C.ar    1  UNL1        0.0184
     16 C         143.1415  140.8953  170.0049 C.3     1  UNL1        0.1816
     17 S         142.7167  141.5223  168.7102 S.O2    1  UNL1        0.0104
     18 O         143.7124  142.6247  168.9174 O.2     1  UNL1       -0.1686
     19 O         141.7210  140.4198  168.5030 O.2     1  UNL1       -0.1686
     20 C         142.4682  142.7958  159.0492 C.ar    1  UNL1        0.0206
     21 C         143.5597  143.1395  158.0794 C.ar    1  UNL1        0.0016
     22 C         144.5114  142.0775  157.6142 C.ar    1  UNL1        0.0014
     23 C         144.3718  140.6719  158.1188 C.ar    1  UNL1        0.0183
     24 C         143.2803  140.3282  159.0886 C.ar    1  UNL1        0.1058
     25 C         142.3286  141.3902  159.5538 C.ar    1  UNL1        0.0199
     26 S         143.1406  138.9225  159.5933 S.O2    1  UNL1        0.0104
     27 C         143.0010  137.5169  160.0979 C.3     1  UNL1        0.1816
     28 O         142.9675  139.4412  160.9901 O.2     1  UNL1       -0.1686
     29 O         143.3138  138.4039  158.1966 O.2     1  UNL1       -0.1686
@<TRIPOS>BOND
     1    16    17    1
     2    17    18    2
     3    17    19    2
     4    17    10    1
     5    10    11   ar
     6    11    12   ar
     7    12    13   ar
     8    13     1    1
     9     1     2   ar
    10     2     3   ar
    11     3     4   ar
    12     4     5   ar
    13     5     6   ar
    14     6     7   ar
    15     7    20    1
    16    20    21   ar
    17    21    22   ar
    18    22    23   ar
    19    23    24   ar
    20    24    26    1
    21    26    27    1
    22    26    28    2
    23    26    29    2
    24    24    25   ar
    25     7     8   ar
    26     8     9   ar
    27    13    14   ar
    28    14    15   ar
    29    15    10   ar
    30     9     1   ar
    31     8     4   ar
    32    25    20   ar
@<TRIPOS>MOLECULE
*****
 29 32 0 0 0
SMALL
GASTEIGER

@<TRIPOS>ATOM
      1 C         140.0863  139.8005  165.4507 C.ar    1  UNL1        0.1014
      2 C         139.4045  138.4916  165.7188 C.ar    1  UNL1        0.0240
      3 C         138.7648  137.7347  164.5928 C.ar    1  UNL1        0.0404
      4 C         138.8069  138.2867  163.1987 C.ar    1  UNL1        0.1639
      5 N         138.2680  137.7696  161.8978 N.ar    1  UNL1       -0.2234
      6 C         138.6168  138.7590  160.8257 C.ar    1  UNL1        0.1197
      7 C         139.3712  139.8875  161.4640 C.ar    1  UNL1        0.1036
      8 N         139.4887  139.5956  162.9306 N.ar    1  UNL1       -0.2107
      9 N         140.1284  140.3525  164.0565 N.ar    1  UNL1       -0.1638
     10 C         142.0055  142.0714  168.8286 C.ar    1  UNL1        0.1057
     11 C         142.5008  140.7021  168.4685 C.ar    1  UNL1        0.0184
     12 C         141.8611  139.9451  167.3425 C.ar    1  UNL1        0.0029
     13 C         140.7260  140.5575  166.5767 C.ar    1  UNL1        0.0194
     14 C         140.2307  141.9268  166.9367 C.ar    1  UNL1        0.0029
     15 C         140.8704  142.6837  168.0626 C.ar    1  UNL1        0.0184
     16 C         143.2849  143.5853  171.0804 C.3     1  UNL1        0.1816
     17 S         142.6452  142.8284  169.9545 S.O2    1  UNL1        0.0104
     18 O         141.3151  142.9329  170.6399 O.2     1  UNL1       -0.1686
     19 O         143.9753  142.7238  169.2691 O.2     1  UNL1       -0.1686
     20 C         139.9131  141.0957  160.7594 C.ar    1  UNL1        0.0206
     21 C         140.6882  140.9361  159.4851 C.ar    1  UNL1        0.0016
     22 C         141.2301  142.1444  158.7805 C.ar    1  UNL1        0.0014
     23 C         140.9968  143.5123  159.3501 C.ar    1  UNL1        0.0183
     24 C         140.2216  143.6719  160.6243 C.ar    1  UNL1        0.1058
     25 C         139.6798  142.4636  161.3289 C.ar    1  UNL1        0.0199
     26 S         139.9883  145.0398  161.1939 S.O2    1  UNL1        0.0104
     27 C         139.7550  146.4077  161.7636 C.3     1  UNL1        0.1816
     28 O         139.8806  145.5993  159.8063 O.2     1  UNL1       -0.1686
     29 O         140.0960  144.4804  162.5814 O.2     1  UNL1       -0.1686
@<TRIPOS>BOND
     1    16    17    1
     2    17    18    2
     3    17    19    2
     4    17    10    1
     5    10    11   ar
     6    11    12   ar
     7    12    13   ar
     8    13     1    1
     9     1     2   ar
    10     2     3   ar
    11     3     4   ar
    12     4     5   ar
    13     5     6   ar
    14     6     7   ar
    15     7    20    1
    16    20    21   ar
    17    21    22   ar
    18    22    23   ar
    19    23    24   ar
    20    24    26    1
    21    26    27    1
    22    26    28    2
    23    26    29    2
    24    24    25   ar
    25     7     8   ar
    26     8     9   ar
    27    13    14   ar
    28    14    15   ar
    29    15    10   ar
    30     9     1   ar
    31     8     4   ar
    32    25    20   ar
@<TRIPOS>MOLECULE
*****
 29 32 0 0 0
SMALL
GASTEIGER

@<TRIPOS>ATOM
      1 C         142.9983  139.4778  163.0306 C.ar    1  UNL1        0.1014
      2 C         143.7176  138.2721  162.5026 C.ar    1  UNL1        0.0240
      3 C         144.0708  138.1871  161.0473 C.ar    1  UNL1        0.0404
      4 C         143.7047  139.3079  160.1200 C.ar    1  UNL1        0.1639
      5 N         143.9199  139.5039  158.6484 N.ar    1  UNL1       -0.2234
      6 C         143.3336  140.8309  158.2670 C.ar    1  UNL1        0.1197
      7 C         142.7560  141.4548  159.5028 C.ar    1  UNL1        0.1036
      8 N         142.9854  140.5136  160.6480 N.ar    1  UNL1       -0.2107
      9 N         142.6322  140.5985  162.1033 N.ar    1  UNL1       -0.1638
     10 C         141.9385  139.7329  167.3967 C.ar    1  UNL1        0.1057
     11 C         143.0709  138.8566  166.9497 C.ar    1  UNL1        0.0184
     12 C         143.4242  138.7716  165.4943 C.ar    1  UNL1        0.0029
     13 C         142.6450  139.5628  164.4860 C.ar    1  UNL1        0.0194
     14 C         141.5126  140.4391  164.9329 C.ar    1  UNL1        0.0029
     15 C         141.1594  140.5242  166.3882 C.ar    1  UNL1        0.0184
     16 C         141.2320  139.9030  170.3072 C.3     1  UNL1        0.1816
     17 S         141.5853  139.8180  168.8520 S.O2    1  UNL1        0.0104
     18 O         143.0329  139.6621  169.2125 O.2     1  UNL1       -0.1686
     19 O         140.1376  139.9738  168.4915 O.2     1  UNL1       -0.1686
     20 C         142.0696  142.7863  159.5799 C.ar    1  UNL1        0.0206
     21 C         142.2648  143.7952  158.4871 C.ar    1  UNL1        0.0016
     22 C         141.5784  145.1266  158.5642 C.ar    1  UNL1        0.0014
     23 C         140.6967  145.4493  159.7340 C.ar    1  UNL1        0.0183
     24 C         140.5015  144.4405  160.8268 C.ar    1  UNL1        0.1058
     25 C         141.1879  143.1090  160.7497 C.ar    1  UNL1        0.0199
     26 S         139.6197  144.7631  161.9967 S.O2    1  UNL1        0.0104
     27 C         138.7380  145.0858  163.1665 C.3     1  UNL1        0.1816
     28 O         139.9523  143.4368  162.6132 O.2     1  UNL1       -0.1686
     29 O         139.2872  146.0895  161.3802 O.2     1  UNL1       -0.1686
@<TRIPOS>BOND
     1    16    17    1
     2    17    18    2
     3    17    19    2
     4    17    10    1
     5    10    11   ar
     6    11    12   ar
     7    12    13   ar
     8    13     1    1
     9     1     2   ar
    10     2     3   ar
    11     3     4   ar
    12     4     5   ar
    13     5     6   ar
    14     6     7   ar
    15     7    20    1
    16    20    21   ar
    17    21    22   ar
    18    22    23   ar
    19    23    24   ar
    20    24    26    1
    21    26    27    1
    22    26    28    2
    23    26    29    2
    24    24    25   ar
    25     7     8   ar
    26     8     9   ar
    27    13    14   ar
    28    14    15   ar
    29    15    10   ar
    30     9     1   ar
    31     8     4   ar
    32    25    20   ar
@<TRIPOS>MOLECULE
*****
 29 32 0 0 0
SMALL
GASTEIGER

@<TRIPOS>ATOM
      1 C         134.8770  140.4931  155.7122 C.ar    1  UNL1        0.1014
      2 C         135.3195  140.7789  154.3077 C.ar    1  UNL1        0.0240
      3 C         136.7498  141.1349  154.0299 C.ar    1  UNL1        0.0404
      4 C         137.7377  141.2049  155.1564 C.ar    1  UNL1        0.1639
      5 N         139.2024  141.5272  155.1884 N.ar    1  UNL1       -0.2234
      6 C         139.6651  141.4405  156.6126 C.ar    1  UNL1        0.1197
      7 C         138.4864  141.0647  157.4608 C.ar    1  UNL1        0.1036
      8 N         137.2953  140.9191  156.5609 N.ar    1  UNL1       -0.2107
      9 N         135.8649  140.5632  156.8387 N.ar    1  UNL1       -0.1638
     10 C         130.5856  139.4254  156.5459 C.ar    1  UNL1        0.1057
     11 C         131.6741  138.4331  156.8297 C.ar    1  UNL1        0.0184
     12 C         133.1046  138.7890  156.5517 C.ar    1  UNL1        0.0029
     13 C         133.4465  140.1372  155.9901 C.ar    1  UNL1        0.0194
     14 C         132.3580  141.1295  155.7063 C.ar    1  UNL1        0.0029
     15 C         130.9276  140.7736  155.9842 C.ar    1  UNL1        0.0184
     16 C         127.7249  138.7136  157.1017 C.3     1  UNL1        0.1816
     17 S         129.1553  139.0695  156.8238 S.O2    1  UNL1        0.0104
     18 O         129.5360  137.6226  156.9306 O.2     1  UNL1       -0.1686
     19 O         128.7745  140.5164  156.7170 O.2     1  UNL1       -0.1686
     20 C         138.4970  140.8689  158.9479 C.ar    1  UNL1        0.0206
     21 C         138.7578  139.5085  159.5234 C.ar    1  UNL1        0.0016
     22 C         138.7684  139.3126  161.0105 C.ar    1  UNL1        0.0014
     23 C         138.5182  140.4771  161.9222 C.ar    1  UNL1        0.0183
     24 C         138.2574  141.8376  161.3467 C.ar    1  UNL1        0.1058
     25 C         138.2468  142.0334  159.8596 C.ar    1  UNL1        0.0199
     26 S         138.0071  143.0023  162.2584 S.O2    1  UNL1        0.0104
     27 C         137.7570  144.1669  163.1700 C.3     1  UNL1        0.1816
     28 O         137.2475  142.1077  163.1926 O.2     1  UNL1       -0.1686
     29 O         138.7668  143.8967  161.3242 O.2     1  UNL1       -0.1686
@<TRIPOS>BOND
     1    16    17    1
     2    17    18    2
     3    17    19    2
     4    17    10    1
     5    10    11   ar
     6    11    12   ar
     7    12    13   ar
     8    13     1    1
     9     1     2   ar
    10     2     3   ar
    11     3     4   ar
    12     4     5   ar
    13     5     6   ar
    14     6     7   ar
    15     7    20    1
    16    20    21   ar
    17    21    22   ar
    18    22    23   ar
    19    23    24   ar
    20    24    26    1
    21    26    27    1
    22    26    28    2
    23    26    29    2
    24    24    25   ar
    25     7     8   ar
    26     8     9   ar
    27    13    14   ar
    28    14    15   ar
    29    15    10   ar
    30     9     1   ar
    31     8     4   ar
    32    25    20   ar
@<TRIPOS>MOLECULE
*****
 29 32 0 0 0
SMALL
GASTEIGER

@<TRIPOS>ATOM
      1 C         140.0173  139.0210  164.6218 C.ar    1  UNL1        0.1014
      2 C         139.0997  137.8484  164.4405 C.ar    1  UNL1        0.0240
      3 C         138.6694  137.4388  163.0631 C.ar    1  UNL1        0.0404
      4 C         139.1566  138.2019  161.8672 C.ar    1  UNL1        0.1639
      5 N         138.9043  138.0336  160.3981 N.ar    1  UNL1       -0.2234
      6 C         139.6660  139.1023  159.6716 C.ar    1  UNL1        0.1197
      7 C         140.3890  139.9310  160.6917 C.ar    1  UNL1        0.1036
      8 N         140.0742  139.3745  162.0486 N.ar    1  UNL1       -0.2107
      9 N         140.5046  139.7840  163.4259 N.ar    1  UNL1       -0.1638
     10 C         141.3084  140.2497  168.7539 C.ar    1  UNL1        0.1057
     11 C         142.3338  139.8418  167.7380 C.ar    1  UNL1        0.0184
     12 C         141.9034  139.4322  166.3606 C.ar    1  UNL1        0.0029
     13 C         140.4477  139.4305  165.9992 C.ar    1  UNL1        0.0194
     14 C         139.4222  139.8385  167.0151 C.ar    1  UNL1        0.0029
     15 C         139.8525  140.2481  168.3924 C.ar    1  UNL1        0.0184
     16 C         142.1690  141.0688  171.5085 C.3     1  UNL1        0.1816
     17 S         141.7387  140.6593  170.1312 S.O2    1  UNL1        0.0104
     18 O         143.1241  140.1596  169.8470 O.2     1  UNL1       -0.1686
     19 O         140.3532  141.1589  170.4155 O.2     1  UNL1       -0.1686
     20 C         141.2719  141.1093  160.4051 C.ar    1  UNL1        0.0206
     21 C         142.7172  141.0785  160.8054 C.ar    1  UNL1        0.0016
     22 C         143.6001  142.2568  160.5188 C.ar    1  UNL1        0.0014
     23 C         143.0377  143.4659  159.8320 C.ar    1  UNL1        0.0183
     24 C         141.5924  143.4967  159.4317 C.ar    1  UNL1        0.1058
     25 C         140.7096  142.3184  159.7183 C.ar    1  UNL1        0.0199
     26 S         141.0300  144.7059  158.7448 S.O2    1  UNL1        0.0104
     27 C         140.4675  145.9149  158.0580 C.3     1  UNL1        0.1816
     28 O         142.4092  145.0962  158.3027 O.2     1  UNL1       -0.1686
     29 O         139.6509  144.3155  159.1870 O.2     1  UNL1       -0.1686
@<TRIPOS>BOND
     1    16    17    1
     2    17    18    2
     3    17    19    2
     4    17    10    1
     5    10    11   ar
     6    11    12   ar
     7    12    13   ar
     8    13     1    1
     9     1     2   ar
    10     2     3   ar
    11     3     4   ar
    12     4     5   ar
    13     5     6   ar
    14     6     7   ar
    15     7    20    1
    16    20    21   ar
    17    21    22   ar
    18    22    23   ar
    19    23    24   ar
    20    24    26    1
    21    26    27    1
    22    26    28    2
    23    26    29    2
    24    24    25   ar
    25     7     8   ar
    26     8     9   ar
    27    13    14   ar
    28    14    15   ar
    29    15    10   ar
    30     9     1   ar
    31     8     4   ar
    32    25    20   ar
