@<TRIPOS>MOLECULE
*****
 45 48 0 0 0
SMALL
GASTEIGER

@<TRIPOS>ATOM
      1 C         141.3503  140.9617  162.2417 C.3     1  UNL1        0.0808
      2 C         141.3453  140.7253  163.7229 C.ar    1  UNL1        0.0375
      3 C         141.0121  141.8477  164.6605 C.ar    1  UNL1        0.0023
      4 C         141.0071  141.6113  166.1417 C.ar    1  UNL1        0.0183
      5 C         140.6739  142.7338  167.0793 C.ar    1  UNL1        0.0118
      6 C         140.6689  142.4973  168.5605 C.ar    1  UNL1        0.0685
      7 C         140.9972  141.1384  169.1042 C.ar    1  UNL1        0.0118
      8 C         141.3304  140.0160  168.1667 C.ar    1  UNL1        0.0199
      9 C         141.3354  140.2524  166.6854 C.ar    1  UNL1        0.0844
     10 N         141.6686  139.1299  165.7479 N.ar    1  UNL1       -0.2119
     11 C         141.6736  139.3664  164.2666 C.ar    1  UNL1        0.2211
     12 C         140.3357  143.6198  169.4981 C.1     1  UNL1        0.1004
     13 N         140.0025  144.7423  170.4356 N.1     1  UNL1       -0.1908
     14 O         142.0068  138.2439  163.3291 O.3     1  UNL1       -0.4563
     15 C         140.8297  137.3147  163.3617 C.3     1  UNL1        0.2542
     16 C         140.2424  140.4148  161.3911 C.ar    1  UNL1        0.0245
     17 C         138.8128  140.6779  161.7614 C.ar    1  UNL1        0.0200
     18 C         137.7049  140.1310  160.9109 C.ar    1  UNL1        0.1019
     19 N         138.0266  139.3210  159.6900 N.ar    1  UNL1       -0.2076
     20 C         139.4561  139.0579  159.3197 C.ar    1  UNL1        0.2598
     21 C         140.5641  139.6049  160.1703 C.ar    1  UNL1        0.1879
     22 O         139.7778  138.2480  158.0989 O.3     1  UNL1       -0.4541
     23 C         139.6233  138.8532  156.7352 C.3     1  UNL1        0.2543
     24 O         141.9936  139.3418  159.8000 O.3     1  UNL1       -0.4670
     25 C         142.5659  137.9634  159.9506 C.3     1  UNL1        0.2527
     26 C         142.4632  141.7451  161.6110 C.3     1  UNL1        0.1162
     27 O         143.4347  140.6645  161.9831 O.3     1  UNL1       -0.3820
     28 H         144.3226  140.9092  161.6788 H       1  UNL1        0.2107
     29 C         140.3056  144.2578  159.4244 C.ar    1  UNL1        0.2272
     30 C         141.2771  143.1772  159.7965 C.ar    1  UNL1        0.0559
     31 C         141.4917  142.8257  161.2389 C.ar    1  UNL1        0.0117
     32 C         140.7348  143.5548  162.3091 C.ar    1  UNL1        0.0560
     33 C         139.7632  144.6354  161.9370 C.ar    1  UNL1        0.2319
     34 N         139.5487  144.9869  160.4946 N.ar    1  UNL1       -0.1766
     35 C         140.2163  146.0343  157.5307 C.3     1  UNL1        0.2542
     36 O         140.0911  144.6093  157.9820 O.3     1  UNL1       -0.4561
     37 O         139.0063  145.3645  163.0073 O.3     1  UNL1       -0.4067
     38 C         138.6237  144.6541  164.2718 C.3     1  UNL1        0.5097
     39 F         137.9983  143.2922  164.2071 F       1  UNL1       -0.1549
     40 F         138.8665  145.3056  165.6010 F       1  UNL1       -0.1549
     41 C         143.5761  142.5285  160.9803 C.3     1  UNL1        0.0491
     42 C         144.6835  143.0762  161.8310 C.3     1  UNL1        0.0750
     43 N         144.3926  143.5600  163.2207 N.3     1  UNL1       -0.2702
     44 C         144.6994  142.6844  164.3993 C.3     1  UNL1        0.0897
     45 C         143.7947  144.9194  163.4318 C.3     1  UNL1        0.0897
@<TRIPOS>BOND
     1    35    36    1
     2    36    29    1
     3    29    30   ar
     4    30    31   ar
     5    31    26    1
     6    26    27    1
     7    26    41    1
     8    41    42    1
     9    42    43    1
    10    43    44    1
    11    43    45    1
    12    26     1    1
    13     1     2    1
    14     2     3   ar
    15     3     4   ar
    16     4     5   ar
    17     5     6   ar
    18     6    12    1
    19    12    13    3
    20     6     7   ar
    21     7     8   ar
    22     8     9   ar
    23     9    10   ar
    24    10    11   ar
    25    11    14    1
    26    14    15    1
    27     1    16    1
    28    16    17   ar
    29    17    18   ar
    30    18    19   ar
    31    19    20   ar
    32    20    22    1
    33    22    23    1
    34    20    21   ar
    35    21    24    1
    36    24    25    1
    37    31    32   ar
    38    32    33   ar
    39    33    37    1
    40    37    38    1
    41    38    39    1
    42    38    40    1
    43    33    34   ar
    44    34    29   ar
    45    11     2   ar
    46    21    16   ar
    47     9     4   ar
    48    27    28    1
@<TRIPOS>MOLECULE
*****
 45 48 0 0 0
SMALL
GASTEIGER

@<TRIPOS>ATOM
      1 C         141.5240  140.7515  163.1777 C.3     1  UNL1        0.0808
      2 C         141.8377  140.7020  164.6438 C.ar    1  UNL1        0.0375
      3 C         140.9771  141.4472  165.6205 C.ar    1  UNL1        0.0023
      4 C         141.2908  141.3977  167.0865 C.ar    1  UNL1        0.0183
      5 C         140.4302  142.1430  168.0632 C.ar    1  UNL1        0.0118
      6 C         140.7440  142.0935  169.5292 C.ar    1  UNL1        0.0685
      7 C         141.9183  141.2988  170.0185 C.ar    1  UNL1        0.0118
      8 C         142.7789  140.5535  169.0417 C.ar    1  UNL1        0.0199
      9 C         142.4652  140.6030  167.5758 C.ar    1  UNL1        0.0844
     10 N         143.3258  139.8578  166.5991 N.ar    1  UNL1       -0.2119
     11 C         143.0120  139.9073  165.1330 C.ar    1  UNL1        0.2211
     12 C         139.8834  142.8387  170.5059 C.1     1  UNL1        0.1004
     13 N         139.0227  143.5839  171.4827 N.1     1  UNL1       -0.1908
     14 O         143.8727  139.1621  164.1563 O.3     1  UNL1       -0.4563
     15 C         145.1301  139.9675  164.0148 C.3     1  UNL1        0.2542
     16 C         142.2800  141.6856  162.2801 C.ar    1  UNL1        0.0245
     17 C         142.4300  143.1299  162.6562 C.ar    1  UNL1        0.0200
     18 C         143.1860  144.0641  161.7585 C.ar    1  UNL1        0.1019
     19 N         143.7921  143.5539  160.4847 N.ar    1  UNL1       -0.2076
     20 C         143.6421  142.1095  160.1086 C.ar    1  UNL1        0.2598
     21 C         142.8860  141.1754  161.0064 C.ar    1  UNL1        0.1879
     22 O         144.2481  141.5993  158.8349 O.3     1  UNL1       -0.4541
     23 C         145.2592  142.4289  158.1006 C.3     1  UNL1        0.2543
     24 O         142.7360  139.7311  160.6303 O.3     1  UNL1       -0.4670
     25 C         143.9226  138.8150  160.6838 C.3     1  UNL1        0.2527
     26 C         140.4542  139.8668  162.6094 C.3     1  UNL1        0.1162
     27 O         141.2757  138.6576  162.9455 O.3     1  UNL1       -0.3820
     28 H         140.8005  137.8576  162.6714 H       1  UNL1        0.2107
     29 C         138.5238  142.6222  160.5043 C.ar    1  UNL1        0.2272
     30 C         139.3453  141.4129  160.8403 C.ar    1  UNL1        0.0559
     31 C         139.6327  141.0761  162.2734 C.ar    1  UNL1        0.0117
     32 C         139.0987  141.9485  163.3705 C.ar    1  UNL1        0.0560
     33 C         138.2772  143.1577  163.0345 C.ar    1  UNL1        0.2319
     34 N         137.9898  143.4946  161.6014 N.ar    1  UNL1       -0.1766
     35 C         139.3610  143.3137  158.1440 C.3     1  UNL1        0.2542
     36 O         138.2364  142.9590  159.0711 O.3     1  UNL1       -0.4561
     37 O         137.7431  144.0301  164.1317 O.3     1  UNL1       -0.4067
     38 C         138.6900  144.7487  165.0466 C.3     1  UNL1        0.5097
     39 F         138.1614  145.5071  166.2278 F       1  UNL1       -0.1549
     40 F         140.1657  144.7089  164.7802 F       1  UNL1       -0.1549
     41 C         139.3844  138.9822  162.0411 C.3     1  UNL1        0.0491
     42 C         138.4240  138.2833  162.9573 C.3     1  UNL1        0.0750
     43 N         138.6754  138.2666  164.4360 N.3     1  UNL1       -0.2702
     44 C         138.0819  139.3315  165.3098 C.3     1  UNL1        0.0897
     45 C         139.5204  137.1848  165.0409 C.3     1  UNL1        0.0897
@<TRIPOS>BOND
     1    35    36    1
     2    36    29    1
     3    29    30   ar
     4    30    31   ar
     5    31    26    1
     6    26    27    1
     7    26    41    1
     8    41    42    1
     9    42    43    1
    10    43    44    1
    11    43    45    1
    12    26     1    1
    13     1     2    1
    14     2     3   ar
    15     3     4   ar
    16     4     5   ar
    17     5     6   ar
    18     6    12    1
    19    12    13    3
    20     6     7   ar
    21     7     8   ar
    22     8     9   ar
    23     9    10   ar
    24    10    11   ar
    25    11    14    1
    26    14    15    1
    27     1    16    1
    28    16    17   ar
    29    17    18   ar
    30    18    19   ar
    31    19    20   ar
    32    20    22    1
    33    22    23    1
    34    20    21   ar
    35    21    24    1
    36    24    25    1
    37    31    32   ar
    38    32    33   ar
    39    33    37    1
    40    37    38    1
    41    38    39    1
    42    38    40    1
    43    33    34   ar
    44    34    29   ar
    45    11     2   ar
    46    21    16   ar
    47     9     4   ar
    48    27    28    1
@<TRIPOS>MOLECULE
*****
 45 48 0 0 0
SMALL
GASTEIGER

@<TRIPOS>ATOM
      1 C         141.5145  141.8939  162.3969 C.3     1  UNL1        0.0808
      2 C         141.9726  141.9537  163.8240 C.ar    1  UNL1        0.0375
      3 C         141.1510  141.3126  164.9029 C.ar    1  UNL1        0.0023
      4 C         141.6091  141.3723  166.3300 C.ar    1  UNL1        0.0183
      5 C         140.7875  140.7312  167.4089 C.ar    1  UNL1        0.0118
      6 C         141.2457  140.7909  168.8360 C.ar    1  UNL1        0.0685
      7 C         142.5253  141.4917  169.1842 C.ar    1  UNL1        0.0118
      8 C         143.3469  142.1328  168.1053 C.ar    1  UNL1        0.0199
      9 C         142.8888  142.0731  166.6782 C.ar    1  UNL1        0.0844
     10 N         143.7104  142.7142  165.5994 N.ar    1  UNL1       -0.2119
     11 C         143.2523  142.6545  164.1722 C.ar    1  UNL1        0.2211
     12 C         140.4241  140.1498  169.9149 C.1     1  UNL1        0.1004
     13 N         139.6025  139.5087  170.9937 N.1     1  UNL1       -0.1908
     14 O         144.0739  143.2956  163.0934 O.3     1  UNL1       -0.4563
     15 C         143.9202  144.7759  163.2812 C.3     1  UNL1        0.2542
     16 C         142.3843  141.2535  161.3562 C.ar    1  UNL1        0.0245
     17 C         142.7919  139.8171  161.4997 C.ar    1  UNL1        0.0200
     18 C         143.6617  139.1767  160.4590 C.ar    1  UNL1        0.1019
     19 N         144.1240  139.9727  159.2746 N.ar    1  UNL1       -0.2076
     20 C         143.7165  141.4091  159.1310 C.ar    1  UNL1        0.2598
     21 C         142.8466  142.0495  160.1719 C.ar    1  UNL1        0.1879
     22 O         144.1788  142.2052  157.9467 O.3     1  UNL1       -0.4541
     23 C         145.6449  142.4199  157.7135 C.3     1  UNL1        0.2543
     24 O         142.4391  143.4860  160.0283 O.3     1  UNL1       -0.4670
     25 C         141.4642  143.8859  158.9607 C.3     1  UNL1        0.2527
     26 C         140.1865  142.4746  162.0106 C.3     1  UNL1        0.1162
     27 O         140.6584  143.8345  162.4327 O.3     1  UNL1       -0.3820
     28 H         139.9504  144.4817  162.2881 H       1  UNL1        0.2107
     29 C         139.0492  139.4464  159.7114 C.ar    1  UNL1        0.2272
     30 C         139.5211  140.8063  160.1335 C.ar    1  UNL1        0.0559
     31 C         139.7146  141.1148  161.5886 C.ar    1  UNL1        0.0117
     32 C         139.4363  140.0635  162.6216 C.ar    1  UNL1        0.0560
     33 C         138.9644  138.7036  162.1996 C.ar    1  UNL1        0.2319
     34 N         138.7709  138.3951  160.7445 N.ar    1  UNL1       -0.1766
     35 C         139.8287  138.2468  157.5427 C.3     1  UNL1        0.2542
     36 O         138.8557  139.1379  158.2563 O.3     1  UNL1       -0.4561
     37 O         138.6861  137.6523  163.2327 O.3     1  UNL1       -0.4067
     38 C         139.1629  137.8411  164.6423 C.3     1  UNL1        0.5097
     39 F         138.3573  138.6650  165.6025 F       1  UNL1       -0.1549
     40 F         140.4454  137.2060  165.0916 F       1  UNL1       -0.1549
     41 C         138.8585  143.0553  161.6243 C.3     1  UNL1        0.0491
     42 C         138.1257  143.9514  162.5784 C.3     1  UNL1        0.0750
     43 N         138.2114  143.7044  164.0554 N.3     1  UNL1       -0.2702
     44 C         137.7275  142.4052  164.6279 C.3     1  UNL1        0.0897
     45 C         138.7811  144.7567  164.9600 C.3     1  UNL1        0.0897
@<TRIPOS>BOND
     1    35    36    1
     2    36    29    1
     3    29    30   ar
     4    30    31   ar
     5    31    26    1
     6    26    27    1
     7    26    41    1
     8    41    42    1
     9    42    43    1
    10    43    44    1
    11    43    45    1
    12    26     1    1
    13     1     2    1
    14     2     3   ar
    15     3     4   ar
    16     4     5   ar
    17     5     6   ar
    18     6    12    1
    19    12    13    3
    20     6     7   ar
    21     7     8   ar
    22     8     9   ar
    23     9    10   ar
    24    10    11   ar
    25    11    14    1
    26    14    15    1
    27     1    16    1
    28    16    17   ar
    29    17    18   ar
    30    18    19   ar
    31    19    20   ar
    32    20    22    1
    33    22    23    1
    34    20    21   ar
    35    21    24    1
    36    24    25    1
    37    31    32   ar
    38    32    33   ar
    39    33    37    1
    40    37    38    1
    41    38    39    1
    42    38    40    1
    43    33    34   ar
    44    34    29   ar
    45    11     2   ar
    46    21    16   ar
    47     9     4   ar
    48    27    28    1
@<TRIPOS>MOLECULE
*****
 45 48 0 0 0
SMALL
GASTEIGER

@<TRIPOS>ATOM
      1 C         142.0312  141.8269  162.5656 C.3     1  UNL1        0.0808
      2 C         142.3288  141.9503  164.0306 C.ar    1  UNL1        0.0375
      3 C         141.4462  141.2705  165.0351 C.ar    1  UNL1        0.0023
      4 C         141.7437  141.3940  166.5000 C.ar    1  UNL1        0.0183
      5 C         140.8611  140.7142  167.5045 C.ar    1  UNL1        0.0118
      6 C         141.1587  140.8376  168.9695 C.ar    1  UNL1        0.0685
      7 C         142.3388  141.6409  169.4301 C.ar    1  UNL1        0.0118
      8 C         143.2214  142.3207  168.4256 C.ar    1  UNL1        0.0199
      9 C         142.9238  142.1973  166.9606 C.ar    1  UNL1        0.0844
     10 N         143.8064  142.8771  165.9562 N.ar    1  UNL1       -0.2119
     11 C         143.5089  142.7536  164.4912 C.ar    1  UNL1        0.2211
     12 C         140.2761  140.1578  169.9740 C.1     1  UNL1        0.1004
     13 N         139.3935  139.4780  170.9784 N.1     1  UNL1       -0.1908
     14 O         144.3914  143.4334  163.4867 O.3     1  UNL1       -0.4563
     15 C         143.9938  144.8797  163.4988 C.3     1  UNL1        0.2542
     16 C         141.2307  142.8882  161.8708 C.ar    1  UNL1        0.0245
     17 C         139.7975  143.1157  162.2504 C.ar    1  UNL1        0.0200
     18 C         138.9970  144.1770  161.5557 C.ar    1  UNL1        0.1019
     19 N         139.6297  145.0109  160.4812 N.ar    1  UNL1       -0.2076
     20 C         141.0629  144.7834  160.1015 C.ar    1  UNL1        0.2598
     21 C         141.8634  143.7220  160.7964 C.ar    1  UNL1        0.1879
     22 O         141.6957  145.6171  159.0271 O.3     1  UNL1       -0.4541
     23 C         141.1763  145.5493  157.6216 C.3     1  UNL1        0.2543
     24 O         143.2966  143.4944  160.4167 O.3     1  UNL1       -0.4670
     25 C         143.6419  143.0387  159.0299 C.3     1  UNL1        0.2527
     26 C         142.5342  140.6420  161.7954 C.3     1  UNL1        0.1162
     27 O         143.9410  141.1390  161.9496 O.3     1  UNL1       -0.3820
     28 H         144.5509  140.5238  161.5132 H       1  UNL1        0.2107
     29 C         139.0040  139.8181  160.1803 C.ar    1  UNL1        0.2272
     30 C         140.4108  140.3151  160.3345 C.ar    1  UNL1        0.0559
     31 C         141.1273  140.1450  161.6412 C.ar    1  UNL1        0.0117
     32 C         140.4370  139.4780  162.7938 C.ar    1  UNL1        0.0560
     33 C         139.0302  138.9810  162.6396 C.ar    1  UNL1        0.2319
     34 N         138.3136  139.1510  161.3329 N.ar    1  UNL1       -0.1766
     35 C         138.4575  141.2521  158.0838 C.3     1  UNL1        0.2542
     36 O         138.2874  139.9881  158.8735 O.3     1  UNL1       -0.4561
     37 O         138.3398  138.3140  163.7923 O.3     1  UNL1       -0.4067
     38 C         138.7703  138.6113  165.1981 C.3     1  UNL1        0.5097
     39 F         140.1099  138.1458  165.6866 F       1  UNL1       -0.1549
     40 F         137.8610  139.3740  166.1155 F       1  UNL1       -0.1549
     41 C         143.0371  139.4572  161.0252 C.3     1  UNL1        0.0491
     42 C         143.8375  139.6614  159.7731 C.3     1  UNL1        0.0750
     43 N         143.3510  139.0966  158.4714 N.3     1  UNL1       -0.2702
     44 C         142.6322  137.7803  158.4470 C.3     1  UNL1        0.0897
     45 C         143.5832  139.8481  157.1942 C.3     1  UNL1        0.0897
@<TRIPOS>BOND
     1    35    36    1
     2    36    29    1
     3    29    30   ar
     4    30    31   ar
     5    31    26    1
     6    26    27    1
     7    26    41    1
     8    41    42    1
     9    42    43    1
    10    43    44    1
    11    43    45    1
    12    26     1    1
    13     1     2    1
    14     2     3   ar
    15     3     4   ar
    16     4     5   ar
    17     5     6   ar
    18     6    12    1
    19    12    13    3
    20     6     7   ar
    21     7     8   ar
    22     8     9   ar
    23     9    10   ar
    24    10    11   ar
    25    11    14    1
    26    14    15    1
    27     1    16    1
    28    16    17   ar
    29    17    18   ar
    30    18    19   ar
    31    19    20   ar
    32    20    22    1
    33    22    23    1
    34    20    21   ar
    35    21    24    1
    36    24    25    1
    37    31    32   ar
    38    32    33   ar
    39    33    37    1
    40    37    38    1
    41    38    39    1
    42    38    40    1
    43    33    34   ar
    44    34    29   ar
    45    11     2   ar
    46    21    16   ar
    47     9     4   ar
    48    27    28    1
@<TRIPOS>MOLECULE
*****
 45 48 0 0 0
SMALL
GASTEIGER

@<TRIPOS>ATOM
      1 C         141.6114  141.7526  162.4283 C.3     1  UNL1        0.0808
      2 C         142.0312  141.8868  163.8622 C.ar    1  UNL1        0.0375
      3 C         141.2179  141.2420  164.9452 C.ar    1  UNL1        0.0023
      4 C         141.6376  141.3762  166.3790 C.ar    1  UNL1        0.0183
      5 C         140.8243  140.7314  167.4620 C.ar    1  UNL1        0.0118
      6 C         141.2440  140.8656  168.8958 C.ar    1  UNL1        0.0685
      7 C         142.4770  141.6445  169.2466 C.ar    1  UNL1        0.0118
      8 C         143.2903  142.2893  168.1636 C.ar    1  UNL1        0.0199
      9 C         142.8706  142.1551  166.7298 C.ar    1  UNL1        0.0844
     10 N         143.6839  142.7999  165.6468 N.ar    1  UNL1       -0.2119
     11 C         143.2641  142.6657  164.2130 C.ar    1  UNL1        0.2211
     12 C         140.4308  140.2209  169.9788 C.1     1  UNL1        0.1004
     13 N         139.6175  139.5762  171.0618 N.1     1  UNL1       -0.1908
     14 O         144.0774  143.3104  163.1300 O.3     1  UNL1       -0.4563
     15 C         143.8956  144.7895  163.3014 C.3     1  UNL1        0.2542
     16 C         142.4870  141.0191  161.4560 C.ar    1  UNL1        0.0245
     17 C         142.8780  139.5961  161.7245 C.ar    1  UNL1        0.0200
     18 C         143.7536  138.8626  160.7522 C.ar    1  UNL1        0.1019
     19 N         144.2382  139.5523  159.5114 N.ar    1  UNL1       -0.2076
     20 C         143.8473  140.9753  159.2429 C.ar    1  UNL1        0.2598
     21 C         142.9717  141.7088  160.2153 C.ar    1  UNL1        0.1879
     22 O         144.3319  141.6649  158.0022 O.3     1  UNL1       -0.4541
     23 C         145.5529  142.5346  158.0558 C.3     1  UNL1        0.2543
     24 O         142.5807  143.1318  159.9468 O.3     1  UNL1       -0.4670
     25 C         141.6550  143.4538  158.8113 C.3     1  UNL1        0.2527
     26 C         140.3161  142.3519  161.9668 C.3     1  UNL1        0.1162
     27 O         140.8126  143.7160  162.3445 O.3     1  UNL1       -0.3820
     28 H         140.1299  144.3754  162.1446 H       1  UNL1        0.2107
     29 C         139.0025  138.6200  162.2790 C.ar    1  UNL1        0.2272
     30 C         139.4991  139.9841  162.6567 C.ar    1  UNL1        0.0559
     31 C         139.8196  140.9878  161.5891 C.ar    1  UNL1        0.0117
     32 C         139.6436  140.6273  160.1437 C.ar    1  UNL1        0.0560
     33 C         139.1471  139.2632  159.7660 C.ar    1  UNL1        0.2319
     34 N         138.8265  138.2595  160.8337 N.ar    1  UNL1       -0.1766
     35 C         139.2931  137.7505  164.7100 C.3     1  UNL1        0.2542
     36 O         138.6820  137.6163  163.3467 O.3     1  UNL1       -0.4561
     37 O         138.9711  138.9028  158.3206 O.3     1  UNL1       -0.4067
     38 C         138.9724  139.9775  157.2742 C.3     1  UNL1        0.5097
     39 F         140.2511  140.3519  156.5852 F       1  UNL1       -0.1549
     40 F         137.6949  140.6777  156.9166 F       1  UNL1       -0.1549
     41 C         139.0208  142.9511  161.5053 C.3     1  UNL1        0.0491
     42 C         138.2788  143.9071  162.3917 C.3     1  UNL1        0.0750
     43 N         138.2620  143.6943  163.8764 N.3     1  UNL1       -0.2702
     44 C         138.8457  144.7315  164.7894 C.3     1  UNL1        0.0897
     45 C         137.6615  142.4442  164.4481 C.3     1  UNL1        0.0897
@<TRIPOS>BOND
     1    35    36    1
     2    36    29    1
     3    29    30   ar
     4    30    31   ar
     5    31    26    1
     6    26    27    1
     7    26    41    1
     8    41    42    1
     9    42    43    1
    10    43    44    1
    11    43    45    1
    12    26     1    1
    13     1     2    1
    14     2     3   ar
    15     3     4   ar
    16     4     5   ar
    17     5     6   ar
    18     6    12    1
    19    12    13    3
    20     6     7   ar
    21     7     8   ar
    22     8     9   ar
    23     9    10   ar
    24    10    11   ar
    25    11    14    1
    26    14    15    1
    27     1    16    1
    28    16    17   ar
    29    17    18   ar
    30    18    19   ar
    31    19    20   ar
    32    20    22    1
    33    22    23    1
    34    20    21   ar
    35    21    24    1
    36    24    25    1
    37    31    32   ar
    38    32    33   ar
    39    33    37    1
    40    37    38    1
    41    38    39    1
    42    38    40    1
    43    33    34   ar
    44    34    29   ar
    45    11     2   ar
    46    21    16   ar
    47     9     4   ar
    48    27    28    1
@<TRIPOS>MOLECULE
*****
 45 48 0 0 0
SMALL
GASTEIGER

@<TRIPOS>ATOM
      1 C         140.5232  141.1985  161.6360 C.3     1  UNL1        0.0808
      2 C         140.1527  140.8228  163.0402 C.ar    1  UNL1        0.0375
      3 C         141.1535  140.9775  164.1468 C.ar    1  UNL1        0.0023
      4 C         140.7832  140.6018  165.5509 C.ar    1  UNL1        0.0183
      5 C         141.7839  140.7565  166.6575 C.ar    1  UNL1        0.0118
      6 C         141.4135  140.3808  168.0617 C.ar    1  UNL1        0.0685
      7 C         140.0424  139.8504  168.3593 C.ar    1  UNL1        0.0118
      8 C         139.0416  139.6957  167.2527 C.ar    1  UNL1        0.0199
      9 C         139.4120  140.0714  165.8486 C.ar    1  UNL1        0.0844
     10 N         138.4112  139.9166  164.7420 N.ar    1  UNL1       -0.2119
     11 C         138.7816  140.2924  163.3378 C.ar    1  UNL1        0.2211
     12 C         142.4143  140.5355  169.1683 C.1     1  UNL1        0.1004
     13 N         143.4151  140.6902  170.2748 N.1     1  UNL1       -0.1908
     14 O         137.7808  140.1376  162.2312 O.3     1  UNL1       -0.4563
     15 C         137.7195  138.6691  161.9317 C.3     1  UNL1        0.2542
     16 C         140.9140  140.1348  160.6533 C.ar    1  UNL1        0.0245
     17 C         142.1312  139.2943  160.9024 C.ar    1  UNL1        0.0200
     18 C         142.5221  138.2306  159.9197 C.ar    1  UNL1        0.1019
     19 N         141.6958  138.0073  158.6879 N.ar    1  UNL1       -0.2076
     20 C         140.4786  138.8478  158.4388 C.ar    1  UNL1        0.2598
     21 C         140.0877  139.9116  159.4216 C.ar    1  UNL1        0.1879
     22 O         139.6523  138.6246  157.2070 O.3     1  UNL1       -0.4541
     23 C         139.9215  137.4394  156.3279 C.3     1  UNL1        0.2543
     24 O         138.8705  140.7521  159.1725 O.3     1  UNL1       -0.4670
     25 C         138.8945  141.8102  158.1095 C.3     1  UNL1        0.2527
     26 C         140.5027  142.6379  161.2146 C.3     1  UNL1        0.1162
     27 O         139.0205  142.6830  161.4405 O.3     1  UNL1       -0.3820
     28 H         138.6885  143.5703  161.2323 H       1  UNL1        0.2107
     29 C         144.0136  142.5627  159.3659 C.ar    1  UNL1        0.2272
     30 C         142.5314  142.6077  159.5919 C.ar    1  UNL1        0.0559
     31 C         141.9849  142.5929  160.9887 C.ar    1  UNL1        0.0117
     32 C         142.9205  142.5329  162.1595 C.ar    1  UNL1        0.0560
     33 C         144.4027  142.4878  161.9335 C.ar    1  UNL1        0.2319
     34 N         144.9493  142.5027  160.5368 N.ar    1  UNL1       -0.1766
     35 C         144.7428  141.2900  157.2214 C.3     1  UNL1        0.2542
     36 O         144.5602  142.5775  157.9691 O.3     1  UNL1       -0.4561
     37 O         145.3384  142.4279  163.1045 O.3     1  UNL1       -0.4067
     38 C         144.8353  141.9789  164.4443 C.3     1  UNL1        0.5097
     39 F         144.6391  140.5177  164.7206 F       1  UNL1       -0.1549
     40 F         144.5283  142.9911  165.5079 F       1  UNL1       -0.1549
     41 C         140.4822  144.0774  160.7932 C.3     1  UNL1        0.0491
     42 C         139.9467  145.1240  161.7248 C.3     1  UNL1        0.0750
     43 N         140.3017  145.0838  163.1816 N.3     1  UNL1       -0.2702
     44 C         139.2613  144.7150  164.1972 C.3     1  UNL1        0.0897
     45 C         141.6972  145.4124  163.6229 C.3     1  UNL1        0.0897
@<TRIPOS>BOND
     1    35    36    1
     2    36    29    1
     3    29    30   ar
     4    30    31   ar
     5    31    26    1
     6    26    27    1
     7    26    41    1
     8    41    42    1
     9    42    43    1
    10    43    44    1
    11    43    45    1
    12    26     1    1
    13     1     2    1
    14     2     3   ar
    15     3     4   ar
    16     4     5   ar
    17     5     6   ar
    18     6    12    1
    19    12    13    3
    20     6     7   ar
    21     7     8   ar
    22     8     9   ar
    23     9    10   ar
    24    10    11   ar
    25    11    14    1
    26    14    15    1
    27     1    16    1
    28    16    17   ar
    29    17    18   ar
    30    18    19   ar
    31    19    20   ar
    32    20    22    1
    33    22    23    1
    34    20    21   ar
    35    21    24    1
    36    24    25    1
    37    31    32   ar
    38    32    33   ar
    39    33    37    1
    40    37    38    1
    41    38    39    1
    42    38    40    1
    43    33    34   ar
    44    34    29   ar
    45    11     2   ar
    46    21    16   ar
    47     9     4   ar
    48    27    28    1
@<TRIPOS>MOLECULE
*****
 45 48 0 0 0
SMALL
GASTEIGER

@<TRIPOS>ATOM
      1 C         141.3797  141.1032  161.9327 C.3     1  UNL1        0.0808
      2 C         141.3305  140.7792  163.3965 C.ar    1  UNL1        0.0375
      3 C         141.0483  141.8621  164.3953 C.ar    1  UNL1        0.0023
      4 C         140.9991  141.5381  165.8590 C.ar    1  UNL1        0.0183
      5 C         140.7169  142.6210  166.8578 C.ar    1  UNL1        0.0118
      6 C         140.6677  142.2969  168.3216 C.ar    1  UNL1        0.0685
      7 C         140.9007  140.8900  168.7866 C.ar    1  UNL1        0.0118
      8 C         141.1829  139.8071  167.7877 C.ar    1  UNL1        0.0199
      9 C         141.2321  140.1311  166.3240 C.ar    1  UNL1        0.0844
     10 N         141.5143  139.0481  165.3252 N.ar    1  UNL1       -0.2119
     11 C         141.5635  139.3722  163.8614 C.ar    1  UNL1        0.2211
     12 C         140.3855  143.3798  169.3205 C.1     1  UNL1        0.1004
     13 N         140.1033  144.4628  170.3193 N.1     1  UNL1       -0.1908
     14 O         141.8457  138.2893  162.8626 O.3     1  UNL1       -0.4563
     15 C         140.6371  137.4010  162.8634 C.3     1  UNL1        0.2542
     16 C         140.2949  140.6143  161.0194 C.ar    1  UNL1        0.0245
     17 C         138.8582  140.7218  161.4367 C.ar    1  UNL1        0.0200
     18 C         137.7734  140.2329  160.5234 C.ar    1  UNL1        0.1019
     19 N         138.1253  139.6364  159.1928 N.ar    1  UNL1       -0.2076
     20 C         139.5621  139.5290  158.7755 C.ar    1  UNL1        0.2598
     21 C         140.6469  140.0179  159.6889 C.ar    1  UNL1        0.1879
     22 O         139.9141  138.9326  157.4450 O.3     1  UNL1       -0.4541
     23 C         139.8644  137.4458  157.2528 C.3     1  UNL1        0.2543
     24 O         142.0837  139.9105  159.2716 O.3     1  UNL1       -0.4670
     25 C         142.7815  138.5835  159.3200 C.3     1  UNL1        0.2527
     26 C         142.5138  141.9163  161.3822 C.3     1  UNL1        0.1162
     27 O         143.4723  140.8174  161.7340 O.3     1  UNL1       -0.3820
     28 H         144.3703  141.0762  161.4742 H       1  UNL1        0.2107
     29 C         139.8971  144.8753  161.7654 C.ar    1  UNL1        0.2272
     30 C         140.8556  143.7764  162.1172 C.ar    1  UNL1        0.0559
     31 C         141.5552  143.0151  161.0305 C.ar    1  UNL1        0.0117
     32 C         141.2964  143.3527  159.5921 C.ar    1  UNL1        0.0560
     33 C         140.3379  144.4515  159.2404 C.ar    1  UNL1        0.2319
     34 N         139.6382  145.2129  160.3270 N.ar    1  UNL1       -0.1766
     35 C         138.9102  144.9738  164.1668 C.3     1  UNL1        0.2542
     36 O         139.1974  145.6366  162.8521 O.3     1  UNL1       -0.4561
     37 O         140.0790  144.7891  157.8019 O.3     1  UNL1       -0.4067
     38 C         140.4783  146.1307  157.2628 C.3     1  UNL1        0.5097
     39 F         139.4699  147.2385  157.1860 F       1  UNL1       -0.1549
     40 F         141.8860  146.3645  156.8004 F       1  UNL1       -0.1549
     41 C         143.6478  142.7293  160.8318 C.3     1  UNL1        0.0491
     42 C         144.7394  143.2072  161.7429 C.3     1  UNL1        0.0750
     43 N         144.4336  143.5278  163.1760 N.3     1  UNL1       -0.2702
     44 C         143.8210  144.8492  163.5346 C.3     1  UNL1        0.0897
     45 C         144.7403  142.5270  164.2504 C.3     1  UNL1        0.0897
@<TRIPOS>BOND
     1    35    36    1
     2    36    29    1
     3    29    30   ar
     4    30    31   ar
     5    31    26    1
     6    26    27    1
     7    26    41    1
     8    41    42    1
     9    42    43    1
    10    43    44    1
    11    43    45    1
    12    26     1    1
    13     1     2    1
    14     2     3   ar
    15     3     4   ar
    16     4     5   ar
    17     5     6   ar
    18     6    12    1
    19    12    13    3
    20     6     7   ar
    21     7     8   ar
    22     8     9   ar
    23     9    10   ar
    24    10    11   ar
    25    11    14    1
    26    14    15    1
    27     1    16    1
    28    16    17   ar
    29    17    18   ar
    30    18    19   ar
    31    19    20   ar
    32    20    22    1
    33    22    23    1
    34    20    21   ar
    35    21    24    1
    36    24    25    1
    37    31    32   ar
    38    32    33   ar
    39    33    37    1
    40    37    38    1
    41    38    39    1
    42    38    40    1
    43    33    34   ar
    44    34    29   ar
    45    11     2   ar
    46    21    16   ar
    47     9     4   ar
    48    27    28    1
@<TRIPOS>MOLECULE
*****
 45 48 0 0 0
SMALL
GASTEIGER

@<TRIPOS>ATOM
      1 C         141.8259  141.2435  161.6236 C.3     1  UNL1        0.0808
      2 C         142.1223  140.9330  163.0610 C.ar    1  UNL1        0.0375
      3 C         141.0022  140.8378  164.0541 C.ar    1  UNL1        0.0023
      4 C         141.2985  140.5273  165.4913 C.ar    1  UNL1        0.0183
      5 C         140.1784  140.4320  166.4845 C.ar    1  UNL1        0.0118
      6 C         140.4748  140.1215  167.9218 C.ar    1  UNL1        0.0685
      7 C         141.8913  139.9062  168.3659 C.ar    1  UNL1        0.0118
      8 C         143.0114  140.0014  167.3727 C.ar    1  UNL1        0.0199
      9 C         142.7150  140.3119  165.9355 C.ar    1  UNL1        0.0844
     10 N         143.8351  140.4072  164.9424 N.ar    1  UNL1       -0.2119
     11 C         143.5387  140.7177  163.5051 C.ar    1  UNL1        0.2211
     12 C         139.3547  140.0263  168.9149 C.1     1  UNL1        0.1004
     13 N         138.2347  139.9310  169.9080 N.1     1  UNL1       -0.1908
     14 O         144.6588  140.8129  162.5119 O.3     1  UNL1       -0.4563
     15 C         145.5024  141.9732  162.9502 C.3     1  UNL1        0.2542
     16 C         142.3665  140.3602  160.5386 C.ar    1  UNL1        0.0245
     17 C         141.9574  138.9187  160.4715 C.ar    1  UNL1        0.0200
     18 C         142.4980  138.0353  159.3864 C.ar    1  UNL1        0.1019
     19 N         143.4478  138.5936  158.3683 N.ar    1  UNL1       -0.2076
     20 C         143.8569  140.0352  158.4354 C.ar    1  UNL1        0.2598
     21 C         143.3162  140.9185  159.5206 C.ar    1  UNL1        0.1879
     22 O         144.8066  140.5934  157.4174 O.3     1  UNL1       -0.4541
     23 C         144.3742  140.7383  155.9885 C.3     1  UNL1        0.2543
     24 O         143.7253  142.3601  159.5877 O.3     1  UNL1       -0.4670
     25 C         143.2576  143.3221  158.5361 C.3     1  UNL1        0.2527
     26 C         140.9888  142.4374  161.2715 C.3     1  UNL1        0.1162
     27 O         142.0801  143.3454  161.7560 O.3     1  UNL1       -0.3820
     28 H         141.8050  144.2690  161.6457 H       1  UNL1        0.2107
     29 C         138.2575  140.7819  158.9159 C.ar    1  UNL1        0.2272
     30 C         139.3487  141.6899  159.4004 C.ar    1  UNL1        0.0559
     31 C         139.8976  141.5294  160.7871 C.ar    1  UNL1        0.0117
     32 C         139.3551  140.4610  161.6893 C.ar    1  UNL1        0.0560
     33 C         138.2638  139.5530  161.2048 C.ar    1  UNL1        0.2319
     34 N         137.7150  139.7135  159.8181 N.ar    1  UNL1       -0.1766
     35 C         138.6147  141.3548  156.4070 C.3     1  UNL1        0.2542
     36 O         137.7086  140.9425  157.5291 O.3     1  UNL1       -0.4561
     37 O         137.7214  138.4845  162.1072 O.3     1  UNL1       -0.4067
     38 C         138.5850  137.9068  163.1890 C.3     1  UNL1        0.5097
     39 F         139.7764  137.0690  162.8304 F       1  UNL1       -0.1549
     40 F         138.2572  138.1669  164.6295 F       1  UNL1       -0.1549
     41 C         140.1518  143.6313  160.9194 C.3     1  UNL1        0.0491
     42 C         139.8112  144.6451  161.9712 C.3     1  UNL1        0.0750
     43 N         139.2927  144.1963  163.3054 N.3     1  UNL1       -0.2702
     44 C         137.9514  143.5324  163.4040 C.3     1  UNL1        0.0897
     45 C         140.1158  144.4116  164.5408 C.3     1  UNL1        0.0897
@<TRIPOS>BOND
     1    35    36    1
     2    36    29    1
     3    29    30   ar
     4    30    31   ar
     5    31    26    1
     6    26    27    1
     7    26    41    1
     8    41    42    1
     9    42    43    1
    10    43    44    1
    11    43    45    1
    12    26     1    1
    13     1     2    1
    14     2     3   ar
    15     3     4   ar
    16     4     5   ar
    17     5     6   ar
    18     6    12    1
    19    12    13    3
    20     6     7   ar
    21     7     8   ar
    22     8     9   ar
    23     9    10   ar
    24    10    11   ar
    25    11    14    1
    26    14    15    1
    27     1    16    1
    28    16    17   ar
    29    17    18   ar
    30    18    19   ar
    31    19    20   ar
    32    20    22    1
    33    22    23    1
    34    20    21   ar
    35    21    24    1
    36    24    25    1
    37    31    32   ar
    38    32    33   ar
    39    33    37    1
    40    37    38    1
    41    38    39    1
    42    38    40    1
    43    33    34   ar
    44    34    29   ar
    45    11     2   ar
    46    21    16   ar
    47     9     4   ar
    48    27    28    1
@<TRIPOS>MOLECULE
*****
 45 48 0 0 0
SMALL
GASTEIGER

@<TRIPOS>ATOM
      1 C         141.5330  140.6287  161.2890 C.3     1  UNL1        0.0808
      2 C         141.8662  140.2554  162.7031 C.ar    1  UNL1        0.0375
      3 C         141.6218  141.2330  163.8143 C.ar    1  UNL1        0.0023
      4 C         141.9550  140.8597  165.2283 C.ar    1  UNL1        0.0183
      5 C         141.7106  141.8373  166.3395 C.ar    1  UNL1        0.0118
      6 C         142.0438  141.4640  167.7536 C.ar    1  UNL1        0.0685
      7 C         142.6213  140.1132  168.0566 C.ar    1  UNL1        0.0118
      8 C         142.8657  139.1357  166.9454 C.ar    1  UNL1        0.0199
      9 C         142.5325  139.5089  165.5313 C.ar    1  UNL1        0.0844
     10 N         142.7769  138.5313  164.4202 N.ar    1  UNL1       -0.2119
     11 C         142.4437  138.9046  163.0060 C.ar    1  UNL1        0.2211
     12 C         141.7994  142.4416  168.8648 C.1     1  UNL1        0.1004
     13 N         141.5551  143.4191  169.9759 N.1     1  UNL1       -0.1908
     14 O         142.6881  137.9271  161.8949 O.3     1  UNL1       -0.4563
     15 C         144.1568  137.9970  161.5983 C.3     1  UNL1        0.2542
     16 C         142.6111  141.1197  160.3690 C.ar    1  UNL1        0.0245
     17 C         143.4967  142.2549  160.7898 C.ar    1  UNL1        0.0200
     18 C         144.5749  142.7459  159.8698 C.ar    1  UNL1        0.1019
     19 N         144.7675  142.1017  158.5289 N.ar    1  UNL1       -0.2076
     20 C         143.8819  140.9665  158.1081 C.ar    1  UNL1        0.2598
     21 C         142.8037  140.4755  159.0281 C.ar    1  UNL1        0.1879
     22 O         144.0745  140.3224  156.7672 O.3     1  UNL1       -0.4541
     23 C         145.3651  140.5063  156.0252 C.3     1  UNL1        0.2543
     24 O         141.9181  139.3404  158.6073 O.3     1  UNL1       -0.4670
     25 C         142.4987  137.9725  158.4021 C.3     1  UNL1        0.2527
     26 C         140.1216  140.5110  160.7949 C.3     1  UNL1        0.1162
     27 O         140.2003  139.0187  160.9255 O.3     1  UNL1       -0.3820
     28 H         139.3568  138.6253  160.6525 H       1  UNL1        0.2107
     29 C         139.9826  144.1314  159.1753 C.ar    1  UNL1        0.2272
     30 C         140.0614  142.6392  159.3059 C.ar    1  UNL1        0.0559
     31 C         140.0428  142.0032  160.6643 C.ar    1  UNL1        0.0117
     32 C         139.9455  142.8594  161.8920 C.ar    1  UNL1        0.0560
     33 C         139.8667  144.3516  161.7613 C.ar    1  UNL1        0.2319
     34 N         139.8853  144.9876  160.4030 N.ar    1  UNL1       -0.1766
     35 C         141.1880  144.5825  156.9184 C.3     1  UNL1        0.2542
     36 O         140.0012  144.7673  157.8168 O.3     1  UNL1       -0.4561
     37 O         139.7694  145.2079  162.9891 O.3     1  UNL1       -0.4067
     38 C         140.3909  144.7488  164.2748 C.3     1  UNL1        0.5097
     39 F         139.5263  144.4709  165.4686 F       1  UNL1       -0.1549
     40 F         141.8772  144.5677  164.3667 F       1  UNL1       -0.1549
     41 C         138.7102  140.3932  160.3008 C.3     1  UNL1        0.0491
     42 C         137.6347  139.8880  161.2164 C.3     1  UNL1        0.0750
     43 N         137.7239  140.1447  162.6916 N.3     1  UNL1       -0.2702
     44 C         137.1803  141.4196  163.2652 C.3     1  UNL1        0.0897
     45 C         138.3569  139.1265  163.5932 C.3     1  UNL1        0.0897
@<TRIPOS>BOND
     1    35    36    1
     2    36    29    1
     3    29    30   ar
     4    30    31   ar
     5    31    26    1
     6    26    27    1
     7    26    41    1
     8    41    42    1
     9    42    43    1
    10    43    44    1
    11    43    45    1
    12    26     1    1
    13     1     2    1
    14     2     3   ar
    15     3     4   ar
    16     4     5   ar
    17     5     6   ar
    18     6    12    1
    19    12    13    3
    20     6     7   ar
    21     7     8   ar
    22     8     9   ar
    23     9    10   ar
    24    10    11   ar
    25    11    14    1
    26    14    15    1
    27     1    16    1
    28    16    17   ar
    29    17    18   ar
    30    18    19   ar
    31    19    20   ar
    32    20    22    1
    33    22    23    1
    34    20    21   ar
    35    21    24    1
    36    24    25    1
    37    31    32   ar
    38    32    33   ar
    39    33    37    1
    40    37    38    1
    41    38    39    1
    42    38    40    1
    43    33    34   ar
    44    34    29   ar
    45    11     2   ar
    46    21    16   ar
    47     9     4   ar
    48    27    28    1
