@<TRIPOS>MOLECULE
*****
 38 42 0 0 0
SMALL
GASTEIGER

@<TRIPOS>ATOM
      1 N         143.6217  140.2846  161.3357 N.3     1  UNL1       -0.2602
      2 C         142.4787  141.0841  160.7839 C.3     1  UNL1        0.1370
      3 C         142.3743  141.6265  159.3893 C.3     1  UNL1        0.0468
      4 C         141.0705  142.3592  159.2734 C.3     1  UNL1        0.0957
      5 N         140.3693  142.2697  160.5963 N.am    1  UNL1       -0.2743
      6 C         141.2396  141.4817  161.5298 C.2     1  UNL1        0.2404
      7 O         140.9257  141.1495  162.9585 O.2     1  UNL1       -0.2734
      8 C         139.0324  142.8639  160.9275 C.3     1  UNL1        0.1202
      9 C         138.7617  143.3772  162.3107 C.ar    1  UNL1       -0.0023
     10 C         137.7030  142.7330  163.1558 C.ar    1  UNL1       -0.0026
     11 C         137.4323  143.2463  164.5391 C.ar    1  UNL1       -0.0003
     12 C         138.2202  144.4038  165.0771 C.ar    1  UNL1       -0.0000
     13 C         139.2788  145.0480  164.2319 C.ar    1  UNL1       -0.0003
     14 C         139.5496  144.5347  162.8487 C.ar    1  UNL1       -0.0026
     15 C         144.5819  140.9158  162.2999 C.3     1  UNL1        0.1187
     16 N         143.8695  142.6192  164.2327 N.ar    1  UNL1       -0.3070
     17 C         143.7192  144.1083  164.3318 C.ar    1  UNL1        0.1786
     18 N         144.0676  144.6992  162.9977 N.ar    1  UNL1       -0.2226
     19 C         144.4332  143.5751  162.0742 C.ar    1  UNL1        0.1147
     20 C         144.3107  142.2896  162.8374 C.ar    1  UNL1        0.0741
     21 C         143.6219  141.6327  165.3353 C.3     1  UNL1        0.1340
     22 C         140.9961  142.7569  168.8126 C.ar    1  UNL1        0.0684
     23 C         142.4643  142.5328  169.0230 C.ar    1  UNL1        0.0100
     24 C         143.3395  142.1581  167.8639 C.ar    1  UNL1       -0.0017
     25 C         142.7467  142.0075  166.4944 C.ar    1  UNL1        0.0005
     26 C         141.2785  142.2316  166.2839 C.ar    1  UNL1       -0.0017
     27 C         140.4033  142.6063  167.4430 C.ar    1  UNL1        0.0100
     28 N         139.2456  143.5063  171.1308 N.1     1  UNL1       -0.1908
     29 C         140.1209  143.1316  169.9717 C.1     1  UNL1        0.1004
     30 C         143.8043  138.8541  160.9233 C.3     1  UNL1        0.0902
     31 C         142.6065  137.9802  160.6960 C.3     1  UNL1        0.0897
     32 N         141.5290  137.8993  161.7364 N.3     1  UNL1       -0.2691
     33 C         140.0902  138.0470  161.3392 C.3     1  UNL1        0.0895
     34 C         139.0128  137.9661  162.3797 C.3     1  UNL1        0.0862
     35 N         139.3742  137.7374  163.8175 N.3     1  UNL1       -0.2951
     36 C         140.8130  137.5897  164.2147 C.3     1  UNL1        0.0862
     37 C         141.8905  137.6707  163.1742 C.3     1  UNL1        0.0895
     38 H         138.8992  136.8828  164.1082 H       1  UNL1        0.1233
@<TRIPOS>BOND
     1    28    29    3
     2    29    22    1
     3    22    23   ar
     4    23    24   ar
     5    24    25   ar
     6    25    21    1
     7    21    16    1
     8    16    17   ar
     9    17    18   ar
    10    18    19   ar
    11    19    20   ar
    12    20    15    1
    13    15     1    1
    14     1    30    1
    15    30    31    1
    16    31    32    1
    17    32    33    1
    18    33    34    1
    19    34    35    1
    20    35    36    1
    21    36    37    1
    22     2     1    1
    23     2     3    1
    24     3     4    1
    25     4     5    1
    26     5     8    1
    27     8     9    1
    28     9    10   ar
    29    10    11   ar
    30    11    12   ar
    31    12    13   ar
    32    13    14   ar
    33     5     6   am
    34     6     7    2
    35    25    26   ar
    36    26    27   ar
    37    27    22   ar
    38    20    16   ar
    39    37    32    1
    40     6     2    1
    41    14     9   ar
    42    35    38    1
@<TRIPOS>MOLECULE
*****
 38 42 0 0 0
SMALL
GASTEIGER

@<TRIPOS>ATOM
      1 N         141.8539  144.3539  161.9376 N.3     1  UNL1       -0.2602
      2 C         140.5674  143.9275  162.5804 C.3     1  UNL1        0.1370
      3 C         139.7394  144.7477  163.5246 C.3     1  UNL1        0.0468
      4 C         138.5432  143.9331  163.9195 C.3     1  UNL1        0.0957
      5 N         138.6321  142.6097  163.2193 N.am    1  UNL1       -0.2743
      6 C         139.8831  142.6062  162.3917 C.2     1  UNL1        0.2404
      7 O         140.3651  141.4791  161.5272 O.2     1  UNL1       -0.2734
      8 C         137.6435  141.4867  163.3277 C.3     1  UNL1        0.1202
      9 C         138.0640  140.1711  163.9128 C.ar    1  UNL1       -0.0023
     10 C         138.0612  139.9766  165.4002 C.ar    1  UNL1       -0.0026
     11 C         138.4817  138.6610  165.9854 C.ar    1  UNL1       -0.0003
     12 C         138.9051  137.5399  165.0831 C.ar    1  UNL1       -0.0000
     13 C         138.9079  137.7344  163.5958 C.ar    1  UNL1       -0.0003
     14 C         138.4873  139.0500  163.0106 C.ar    1  UNL1       -0.0026
     15 C         143.0783  144.5649  162.7782 C.3     1  UNL1        0.1187
     16 N         144.6015  142.9333  164.2488 N.ar    1  UNL1       -0.3070
     17 C         145.5700  141.8282  163.9475 C.ar    1  UNL1        0.1786
     18 N         145.6406  141.6671  162.4577 N.ar    1  UNL1       -0.2226
     19 C         144.7158  142.6727  161.8384 C.ar    1  UNL1        0.1147
     20 C         144.0736  143.4552  162.9453 C.ar    1  UNL1        0.0741
     21 C         144.2268  143.4295  165.6138 C.3     1  UNL1        0.1340
     22 C         140.9810  141.3623  167.9466 C.ar    1  UNL1        0.0684
     23 C         142.3216  141.6003  168.5760 C.ar    1  UNL1        0.0100
     24 C         143.4035  142.2894  167.7984 C.ar    1  UNL1       -0.0017
     25 C         143.1449  142.7404  166.3914 C.ar    1  UNL1        0.0005
     26 C         141.8043  142.5023  165.7620 C.ar    1  UNL1       -0.0017
     27 C         140.7224  141.8132  166.5396 C.ar    1  UNL1        0.0100
     28 N         138.8172  139.9841  169.5017 N.1     1  UNL1       -0.1908
     29 C         139.8991  140.6732  168.7242 C.1     1  UNL1        0.1004
     30 C         141.9160  144.5693  160.4545 C.3     1  UNL1        0.0902
     31 C         140.7665  145.2181  159.7421 C.3     1  UNL1        0.0897
     32 N         140.8655  145.5168  158.2755 N.3     1  UNL1       -0.2691
     33 C         139.8018  146.3330  157.6028 C.3     1  UNL1        0.0895
     34 C         139.9009  146.6317  156.1362 C.3     1  UNL1        0.0862
     35 N         141.0636  146.1142  155.3422 N.3     1  UNL1       -0.2951
     36 C         142.1273  145.2981  156.0149 C.3     1  UNL1        0.0862
     37 C         142.0282  144.9994  157.4816 C.3     1  UNL1        0.0895
     38 H         141.5282  146.9267  154.9367 H       1  UNL1        0.1233
@<TRIPOS>BOND
     1    28    29    3
     2    29    22    1
     3    22    23   ar
     4    23    24   ar
     5    24    25   ar
     6    25    21    1
     7    21    16    1
     8    16    17   ar
     9    17    18   ar
    10    18    19   ar
    11    19    20   ar
    12    20    15    1
    13    15     1    1
    14     1    30    1
    15    30    31    1
    16    31    32    1
    17    32    33    1
    18    33    34    1
    19    34    35    1
    20    35    36    1
    21    36    37    1
    22     2     1    1
    23     2     3    1
    24     3     4    1
    25     4     5    1
    26     5     8    1
    27     8     9    1
    28     9    10   ar
    29    10    11   ar
    30    11    12   ar
    31    12    13   ar
    32    13    14   ar
    33     5     6   am
    34     6     7    2
    35    25    26   ar
    36    26    27   ar
    37    27    22   ar
    38    20    16   ar
    39    37    32    1
    40     6     2    1
    41    14     9   ar
    42    35    38    1
@<TRIPOS>MOLECULE
*****
 38 42 0 0 0
SMALL
GASTEIGER

@<TRIPOS>ATOM
      1 N         143.2738  141.5252  162.2189 N.3     1  UNL1       -0.2602
      2 C         143.1674  140.7753  163.5136 C.3     1  UNL1        0.1370
      3 C         144.0528  139.6478  163.9549 C.3     1  UNL1        0.0468
      4 C         143.5895  139.1970  165.3085 C.3     1  UNL1        0.0957
      5 N         142.4178  140.0459  165.7038 N.am    1  UNL1       -0.2743
      6 C         142.1569  141.0213  164.5945 C.2     1  UNL1        0.2404
      7 O         141.0754  142.0604  164.5705 O.2     1  UNL1       -0.2734
      8 C         141.6430  139.9383  166.9836 C.3     1  UNL1        0.1202
      9 C         141.6726  141.0633  167.9752 C.ar    1  UNL1       -0.0023
     10 C         140.4875  141.9723  168.1139 C.ar    1  UNL1       -0.0026
     11 C         140.5171  143.0974  169.1055 C.ar    1  UNL1       -0.0003
     12 C         141.7319  143.3136  169.9585 C.ar    1  UNL1       -0.0000
     13 C         142.9171  142.4046  169.8199 C.ar    1  UNL1       -0.0003
     14 C         142.8874  141.2795  168.8282 C.ar    1  UNL1       -0.0026
     15 C         143.6043  140.7920  160.9526 C.3     1  UNL1        0.1187
     16 N         141.6967  139.0719  160.2126 N.ar    1  UNL1       -0.3070
     17 C         140.7106  139.0027  159.0845 C.ar    1  UNL1        0.1786
     18 N         140.9077  140.2137  158.2214 N.ar    1  UNL1       -0.2226
     19 C         142.0157  141.0314  158.8162 C.ar    1  UNL1        0.1147
     20 C         142.5034  140.3258  160.0468 C.ar    1  UNL1        0.0741
     21 C         141.8495  138.0644  161.3133 C.3     1  UNL1        0.1340
     22 C         139.1241  138.2099  164.8911 C.ar    1  UNL1        0.0684
     23 C         138.9238  139.1700  163.7562 C.ar    1  UNL1        0.0100
     24 C         139.8323  139.1215  162.5636 C.ar    1  UNL1       -0.0017
     25 C         140.9410  138.1129  162.5059 C.ar    1  UNL1        0.0005
     26 C         141.1413  137.1528  163.6408 C.ar    1  UNL1       -0.0017
     27 C         140.2328  137.2013  164.8334 C.ar    1  UNL1        0.0100
     28 N         137.3071  138.3069  167.2763 N.1     1  UNL1       -0.1908
     29 C         138.2156  138.2584  166.0837 C.1     1  UNL1        0.1004
     30 C         143.0497  143.0081  162.1904 C.3     1  UNL1        0.0902
     31 C         142.0524  143.5977  161.2377 C.3     1  UNL1        0.0897
     32 N         140.6041  143.6743  161.6206 N.3     1  UNL1       -0.2691
     33 C         139.6533  142.6025  161.1766 C.3     1  UNL1        0.0895
     34 C         138.2050  142.6791  161.5595 C.3     1  UNL1        0.0862
     35 N         137.7075  143.8275  162.3863 N.3     1  UNL1       -0.2951
     36 C         138.6583  144.8993  162.8303 C.3     1  UNL1        0.0862
     37 C         140.1067  144.8227  162.4474 C.3     1  UNL1        0.0895
     38 H         137.2997  143.4272  163.2312 H       1  UNL1        0.1233
@<TRIPOS>BOND
     1    28    29    3
     2    29    22    1
     3    22    23   ar
     4    23    24   ar
     5    24    25   ar
     6    25    21    1
     7    21    16    1
     8    16    17   ar
     9    17    18   ar
    10    18    19   ar
    11    19    20   ar
    12    20    15    1
    13    15     1    1
    14     1    30    1
    15    30    31    1
    16    31    32    1
    17    32    33    1
    18    33    34    1
    19    34    35    1
    20    35    36    1
    21    36    37    1
    22     2     1    1
    23     2     3    1
    24     3     4    1
    25     4     5    1
    26     5     8    1
    27     8     9    1
    28     9    10   ar
    29    10    11   ar
    30    11    12   ar
    31    12    13   ar
    32    13    14   ar
    33     5     6   am
    34     6     7    2
    35    25    26   ar
    36    26    27   ar
    37    27    22   ar
    38    20    16   ar
    39    37    32    1
    40     6     2    1
    41    14     9   ar
    42    35    38    1
@<TRIPOS>MOLECULE
*****
 38 42 0 0 0
SMALL
GASTEIGER

@<TRIPOS>ATOM
      1 N         141.6853  138.3269  160.9869 N.3     1  UNL1       -0.2602
      2 C         140.4459  138.6318  161.7749 C.3     1  UNL1        0.1370
      3 C         139.6898  137.6656  162.6379 C.3     1  UNL1        0.0468
      4 C         138.5216  138.3931  163.2346 C.3     1  UNL1        0.0957
      5 N         138.5557  139.8089  162.7404 N.am    1  UNL1       -0.2743
      6 C         139.7450  139.9564  161.8383 C.2     1  UNL1        0.2404
      7 O         140.1603  141.2088  161.1247 O.2     1  UNL1       -0.2734
      8 C         137.5730  140.8878  163.0874 C.3     1  UNL1        0.1202
      9 C         138.0630  142.2330  163.5347 C.ar    1  UNL1       -0.0023
     10 C         137.8872  143.4287  162.6462 C.ar    1  UNL1       -0.0026
     11 C         138.3772  144.7741  163.0935 C.ar    1  UNL1       -0.0003
     12 C         139.0431  144.9237  164.4292 C.ar    1  UNL1       -0.0000
     13 C         139.2189  143.7280  165.3177 C.ar    1  UNL1       -0.0003
     14 C         138.7289  142.3826  164.8704 C.ar    1  UNL1       -0.0026
     15 C         142.9892  138.1072  161.6952 C.3     1  UNL1        0.1187
     16 N         143.7564  139.4107  163.8991 N.ar    1  UNL1       -0.3070
     17 C         144.4996  140.6845  164.1735 C.ar    1  UNL1        0.1786
     18 N         144.8569  141.3057  162.8557 N.ar    1  UNL1       -0.2226
     19 C         144.3346  140.4158  161.7669 C.ar    1  UNL1        0.1147
     20 C         143.6545  139.2447  162.4118 C.ar    1  UNL1        0.0741
     21 C         143.2110  138.4685  164.9309 C.3     1  UNL1        0.1340
     22 C         140.5831  140.0260  168.2352 C.ar    1  UNL1        0.0684
     23 C         142.0163  139.6832  168.5152 C.ar    1  UNL1        0.0100
     24 C         142.8922  139.1640  167.4138 C.ar    1  UNL1       -0.0017
     25 C         142.3350  138.9876  166.0323 C.ar    1  UNL1        0.0005
     26 C         140.9018  139.3304  165.7524 C.ar    1  UNL1       -0.0017
     27 C         140.0259  139.8496  166.8538 C.ar    1  UNL1        0.0100
     28 N         138.8312  141.0643  170.4381 N.1     1  UNL1       -0.1908
     29 C         139.7071  140.5452  169.3366 C.1     1  UNL1        0.1004
     30 C         141.6208  138.2418  159.4908 C.3     1  UNL1        0.0902
     31 C         142.6640  138.9227  158.6551 C.3     1  UNL1        0.0897
     32 N         143.1982  138.2483  157.4264 N.3     1  UNL1       -0.2691
     33 C         143.0237  136.7694  157.2466 C.3     1  UNL1        0.0895
     34 C         143.5579  136.0951  156.0178 C.3     1  UNL1        0.0862
     35 N         144.2667  136.8997  154.9688 N.3     1  UNL1       -0.2951
     36 C         144.4412  138.3786  155.1486 C.3     1  UNL1        0.0862
     37 C         143.9069  139.0530  156.3775 C.3     1  UNL1        0.0895
     38 H         143.7515  136.7677  154.0984 H       1  UNL1        0.1233
@<TRIPOS>BOND
     1    28    29    3
     2    29    22    1
     3    22    23   ar
     4    23    24   ar
     5    24    25   ar
     6    25    21    1
     7    21    16    1
     8    16    17   ar
     9    17    18   ar
    10    18    19   ar
    11    19    20   ar
    12    20    15    1
    13    15     1    1
    14     1    30    1
    15    30    31    1
    16    31    32    1
    17    32    33    1
    18    33    34    1
    19    34    35    1
    20    35    36    1
    21    36    37    1
    22     2     1    1
    23     2     3    1
    24     3     4    1
    25     4     5    1
    26     5     8    1
    27     8     9    1
    28     9    10   ar
    29    10    11   ar
    30    11    12   ar
    31    12    13   ar
    32    13    14   ar
    33     5     6   am
    34     6     7    2
    35    25    26   ar
    36    26    27   ar
    37    27    22   ar
    38    20    16   ar
    39    37    32    1
    40     6     2    1
    41    14     9   ar
    42    35    38    1
@<TRIPOS>MOLECULE
*****
 38 42 0 0 0
SMALL
GASTEIGER

@<TRIPOS>ATOM
      1 N         142.4861  138.4430  161.4681 N.3     1  UNL1       -0.2602
      2 C         141.6362  138.4374  162.7041 C.3     1  UNL1        0.1370
      3 C         141.2248  137.2251  163.4859 C.3     1  UNL1        0.0468
      4 C         140.3828  137.6818  164.6403 C.3     1  UNL1        0.0957
      5 N         140.2739  139.1762  164.5720 N.am    1  UNL1       -0.2743
      6 C         141.0485  139.6432  163.3754 C.2     1  UNL1        0.2404
      7 O         141.2074  141.0663  162.9286 O.2     1  UNL1       -0.2734
      8 C         139.5223  140.0502  165.5318 C.3     1  UNL1        0.1202
      9 C         139.1127  141.4341  165.1231 C.ar    1  UNL1       -0.0023
     10 C         137.9896  141.6265  164.1477 C.ar    1  UNL1       -0.0026
     11 C         137.5800  143.0105  163.7389 C.ar    1  UNL1       -0.0003
     12 C         138.2936  144.2020  164.3056 C.ar    1  UNL1       -0.0000
     13 C         139.4167  144.0095  165.2811 C.ar    1  UNL1       -0.0003
     14 C         139.8263  142.6256  165.6898 C.ar    1  UNL1       -0.0026
     15 C         143.8868  138.9768  161.5235 C.3     1  UNL1        0.1187
     16 N         144.7851  141.2828  162.5337 N.ar    1  UNL1       -0.3070
     17 C         144.8183  142.7062  162.0616 C.ar    1  UNL1        0.1786
     18 N         144.1820  142.7593  160.7042 N.ar    1  UNL1       -0.2226
     19 C         143.7556  141.3686  160.3374 C.ar    1  UNL1        0.1147
     20 C         144.1283  140.4562  161.4681 C.ar    1  UNL1        0.0741
     21 C         145.3156  140.7752  163.8417 C.3     1  UNL1        0.1340
     22 C         142.5148  140.1143  167.3013 C.ar    1  UNL1        0.0684
     23 C         143.1938  138.9449  166.6521 C.ar    1  UNL1        0.0100
     24 C         144.1274  139.1652  165.4989 C.ar    1  UNL1       -0.0017
     25 C         144.3820  140.5549  164.9949 C.ar    1  UNL1        0.0005
     26 C         143.7030  141.7242  165.6442 C.ar    1  UNL1       -0.0017
     27 C         142.7695  141.5039  166.7974 C.ar    1  UNL1        0.0100
     28 N         140.6477  139.6737  169.6078 N.1     1  UNL1       -0.1908
     29 C         141.5813  139.8940  168.4545 C.1     1  UNL1        0.1004
     30 C         141.9352  137.9147  160.1769 C.3     1  UNL1        0.0902
     31 C         140.9924  138.7526  159.3650 C.3     1  UNL1        0.0897
     32 N         139.7151  139.2488  159.9750 N.3     1  UNL1       -0.2691
     33 C         138.8395  138.3094  160.7502 C.3     1  UNL1        0.0895
     34 C         137.5622  138.8058  161.3602 C.3     1  UNL1        0.0862
     35 N         137.1604  140.2415  161.1950 N.3     1  UNL1       -0.2951
     36 C         138.0360  141.1809  160.4199 C.3     1  UNL1        0.0862
     37 C         139.3134  140.6845  159.8098 C.3     1  UNL1        0.0895
     38 H         137.0683  140.6313  162.1331 H       1  UNL1        0.1233
@<TRIPOS>BOND
     1    28    29    3
     2    29    22    1
     3    22    23   ar
     4    23    24   ar
     5    24    25   ar
     6    25    21    1
     7    21    16    1
     8    16    17   ar
     9    17    18   ar
    10    18    19   ar
    11    19    20   ar
    12    20    15    1
    13    15     1    1
    14     1    30    1
    15    30    31    1
    16    31    32    1
    17    32    33    1
    18    33    34    1
    19    34    35    1
    20    35    36    1
    21    36    37    1
    22     2     1    1
    23     2     3    1
    24     3     4    1
    25     4     5    1
    26     5     8    1
    27     8     9    1
    28     9    10   ar
    29    10    11   ar
    30    11    12   ar
    31    12    13   ar
    32    13    14   ar
    33     5     6   am
    34     6     7    2
    35    25    26   ar
    36    26    27   ar
    37    27    22   ar
    38    20    16   ar
    39    37    32    1
    40     6     2    1
    41    14     9   ar
    42    35    38    1
@<TRIPOS>MOLECULE
*****
 38 42 0 0 0
SMALL
GASTEIGER

@<TRIPOS>ATOM
      1 N         141.5591  138.0731  162.1481 N.3     1  UNL1       -0.2602
      2 C         140.6596  139.0657  161.4732 C.3     1  UNL1        0.1370
      3 C         139.7734  138.7932  160.2941 C.3     1  UNL1        0.0468
      4 C         139.0545  140.0643  159.9510 C.3     1  UNL1        0.0957
      5 N         139.4965  141.1223  160.9180 N.am    1  UNL1       -0.2743
      6 C         140.4885  140.5052  161.8588 C.2     1  UNL1        0.2404
      7 O         141.1868  141.2047  162.9870 O.2     1  UNL1       -0.2734
      8 C         139.0286  142.5473  160.9404 C.3     1  UNL1        0.1202
      9 C         138.8567  143.2598  162.2491 C.ar    1  UNL1       -0.0023
     10 C         139.8059  144.3543  162.6375 C.ar    1  UNL1       -0.0026
     11 C         139.6340  145.0669  163.9463 C.ar    1  UNL1       -0.0003
     12 C         138.5129  144.6849  164.8666 C.ar    1  UNL1       -0.0000
     13 C         137.5636  143.5903  164.4783 C.ar    1  UNL1       -0.0003
     14 C         137.7355  142.8778  163.1695 C.ar    1  UNL1       -0.0026
     15 C         141.0294  137.2150  163.2586 C.3     1  UNL1        0.1187
     16 N         140.6527  138.6287  165.4956 N.ar    1  UNL1       -0.3070
     17 C         139.4573  139.0303  166.3079 C.ar    1  UNL1        0.1786
     18 N         138.2353  138.4692  165.6430 N.ar    1  UNL1       -0.2226
     19 C         138.6756  137.7209  164.4197 C.ar    1  UNL1        0.1147
     20 C         140.1695  137.8195  164.3287 C.ar    1  UNL1        0.0741
     21 C         142.0806  138.9755  165.7973 C.3     1  UNL1        0.1340
     22 C         143.0373  141.9585  169.0278 C.ar    1  UNL1        0.0684
     23 C         142.9265  142.4078  167.6010 C.ar    1  UNL1        0.0100
     24 C         142.6076  141.4135  166.5242 C.ar    1  UNL1       -0.0017
     25 C         142.3995  139.9698  166.8741 C.ar    1  UNL1        0.0005
     26 C         142.5103  139.5205  168.3009 C.ar    1  UNL1       -0.0017
     27 C         142.8292  140.5148  169.3777 C.ar    1  UNL1        0.0100
     28 N         143.6752  143.9472  171.1815 N.1     1  UNL1       -0.1908
     29 C         143.3562  142.9528  170.1047 C.1     1  UNL1        0.1004
     30 C         142.9882  137.9386  161.7126 C.3     1  UNL1        0.0902
     31 C         143.5825  138.9424  160.7697 C.3     1  UNL1        0.0897
     32 N         144.1030  140.2477  161.2944 N.3     1  UNL1       -0.2691
     33 C         144.0564  141.4746  160.4327 C.3     1  UNL1        0.0895
     34 C         144.5769  142.7798  160.9575 C.3     1  UNL1        0.0862
     35 N         145.1439  142.8583  162.3440 N.3     1  UNL1       -0.2951
     36 C         145.1905  141.6314  163.2057 C.3     1  UNL1        0.0862
     37 C         144.6700  140.3260  162.6809 C.3     1  UNL1        0.0895
     38 H         144.5924  143.5520  162.8490 H       1  UNL1        0.1233
@<TRIPOS>BOND
     1    28    29    3
     2    29    22    1
     3    22    23   ar
     4    23    24   ar
     5    24    25   ar
     6    25    21    1
     7    21    16    1
     8    16    17   ar
     9    17    18   ar
    10    18    19   ar
    11    19    20   ar
    12    20    15    1
    13    15     1    1
    14     1    30    1
    15    30    31    1
    16    31    32    1
    17    32    33    1
    18    33    34    1
    19    34    35    1
    20    35    36    1
    21    36    37    1
    22     2     1    1
    23     2     3    1
    24     3     4    1
    25     4     5    1
    26     5     8    1
    27     8     9    1
    28     9    10   ar
    29    10    11   ar
    30    11    12   ar
    31    12    13   ar
    32    13    14   ar
    33     5     6   am
    34     6     7    2
    35    25    26   ar
    36    26    27   ar
    37    27    22   ar
    38    20    16   ar
    39    37    32    1
    40     6     2    1
    41    14     9   ar
    42    35    38    1
@<TRIPOS>MOLECULE
*****
 38 42 0 0 0
SMALL
GASTEIGER

@<TRIPOS>ATOM
      1 N         143.6934  140.4148  161.3427 N.3     1  UNL1       -0.2602
      2 C         142.5300  141.1633  160.7629 C.3     1  UNL1        0.1370
      3 C         142.4501  141.7326  159.3774 C.3     1  UNL1        0.0468
      4 C         141.1129  142.3951  159.2250 C.3     1  UNL1        0.0957
      5 N         140.3665  142.2352  160.5161 N.am    1  UNL1       -0.2743
      6 C         141.2423  141.4739  161.4666 C.2     1  UNL1        0.2404
      7 O         140.8918  141.0905  162.8738 O.2     1  UNL1       -0.2734
      8 C         138.9865  142.7468  160.8060 C.3     1  UNL1        0.1202
      9 C         138.6439  143.2437  162.1792 C.ar    1  UNL1       -0.0023
     10 C         139.3132  144.4718  162.7210 C.ar    1  UNL1       -0.0026
     11 C         138.9706  144.9688  164.0943 C.ar    1  UNL1       -0.0003
     12 C         137.9587  144.2375  164.9257 C.ar    1  UNL1       -0.0000
     13 C         137.2894  143.0093  164.3839 C.ar    1  UNL1       -0.0003
     14 C         137.6320  142.5124  163.0106 C.ar    1  UNL1       -0.0026
     15 C         144.4285  140.9711  162.5260 C.3     1  UNL1        0.1187
     16 N         144.0301  142.9651  164.2610 N.ar    1  UNL1       -0.3070
     17 C         143.9543  144.4598  164.1600 C.ar    1  UNL1        0.1786
     18 N         144.1596  144.8382  162.7230 N.ar    1  UNL1       -0.2226
     19 C         144.3622  143.5774  161.9360 C.ar    1  UNL1        0.1147
     20 C         144.2822  142.4198  162.8865 C.ar    1  UNL1        0.0741
     21 C         143.8801  142.1575  165.5161 C.3     1  UNL1        0.1340
     22 C         140.0174  140.0093  166.3614 C.ar    1  UNL1        0.0684
     23 C         140.0641  141.5082  166.3917 C.ar    1  UNL1        0.0100
     24 C         141.3517  142.2243  166.1100 C.ar    1  UNL1       -0.0017
     25 C         142.5925  141.4414  165.7979 C.ar    1  UNL1        0.0005
     26 C         142.5458  139.9425  165.7676 C.ar    1  UNL1       -0.0017
     27 C         141.2582  139.2264  166.0493 C.ar    1  UNL1        0.0100
     28 N         137.4422  138.5771  166.9249 N.1     1  UNL1       -0.1908
     29 C         138.7298  139.2932  166.6431 C.1     1  UNL1        0.1004
     30 C         144.1216  139.1100  160.7393 C.3     1  UNL1        0.0902
     31 C         143.4158  137.8414  161.1171 C.3     1  UNL1        0.0897
     32 N         141.9376  137.8528  161.3710 N.3     1  UNL1       -0.2691
     33 C         140.9872  138.1703  160.2547 C.3     1  UNL1        0.0895
     34 C         139.5090  138.1815  160.5087 C.3     1  UNL1        0.0862
     35 N         138.9809  137.8753  161.8789 N.3     1  UNL1       -0.2951
     36 C         139.9312  137.5578  162.9951 C.3     1  UNL1        0.0862
     37 C         141.4096  137.5465  162.7412 C.3     1  UNL1        0.0895
     38 H         138.3607  137.0713  161.7825 H       1  UNL1        0.1233
@<TRIPOS>BOND
     1    28    29    3
     2    29    22    1
     3    22    23   ar
     4    23    24   ar
     5    24    25   ar
     6    25    21    1
     7    21    16    1
     8    16    17   ar
     9    17    18   ar
    10    18    19   ar
    11    19    20   ar
    12    20    15    1
    13    15     1    1
    14     1    30    1
    15    30    31    1
    16    31    32    1
    17    32    33    1
    18    33    34    1
    19    34    35    1
    20    35    36    1
    21    36    37    1
    22     2     1    1
    23     2     3    1
    24     3     4    1
    25     4     5    1
    26     5     8    1
    27     8     9    1
    28     9    10   ar
    29    10    11   ar
    30    11    12   ar
    31    12    13   ar
    32    13    14   ar
    33     5     6   am
    34     6     7    2
    35    25    26   ar
    36    26    27   ar
    37    27    22   ar
    38    20    16   ar
    39    37    32    1
    40     6     2    1
    41    14     9   ar
    42    35    38    1
@<TRIPOS>MOLECULE
*****
 38 42 0 0 0
SMALL
GASTEIGER

@<TRIPOS>ATOM
      1 N         139.0603  140.0287  160.6240 N.3     1  UNL1       -0.2602
      2 C         138.8539  140.7652  161.9143 C.3     1  UNL1        0.1370
      3 C         137.5327  141.0534  162.5635 C.3     1  UNL1        0.0468
      4 C         137.7948  141.8092  163.8325 C.3     1  UNL1        0.0957
      5 N         139.2779  141.9882  163.9674 N.am    1  UNL1       -0.2743
      6 C         139.9324  141.3430  162.7820 C.2     1  UNL1        0.2404
      7 O         141.4068  141.2856  162.5118 O.2     1  UNL1       -0.2734
      8 C         139.9827  142.6893  165.0907 C.3     1  UNL1        0.1202
      9 C         141.3125  143.3406  164.8513 C.ar    1  UNL1       -0.0023
     10 C         142.5575  142.7402  165.4340 C.ar    1  UNL1       -0.0026
     11 C         143.8874  143.3916  165.1946 C.ar    1  UNL1       -0.0003
     12 C         143.9722  144.6434  164.3725 C.ar    1  UNL1       -0.0000
     13 C         142.7273  145.2438  163.7898 C.ar    1  UNL1       -0.0003
     14 C         141.3974  144.5925  164.0292 C.ar    1  UNL1       -0.0026
     15 C         139.6499  138.6494  160.6339 C.3     1  UNL1        0.1187
     16 N         141.7550  137.7971  162.0434 N.ar    1  UNL1       -0.3070
     17 C         143.2428  137.8343  161.8554 C.ar    1  UNL1        0.1786
     18 N         143.5285  138.5246  160.5546 N.ar    1  UNL1       -0.2226
     19 C         142.2173  138.9139  159.9387 C.ar    1  UNL1        0.1147
     20 C         141.1213  138.4643  160.8588 C.ar    1  UNL1        0.0741
     21 C         141.0286  137.1979  163.2110 C.3     1  UNL1        0.1340
     22 C         140.2717  139.6654  166.8972 C.ar    1  UNL1        0.0684
     23 C         141.6777  139.4104  166.4410 C.ar    1  UNL1        0.0100
     24 C         141.9300  138.5879  165.2123 C.ar    1  UNL1       -0.0017
     25 C         140.7763  138.0204  164.4397 C.ar    1  UNL1        0.0005
     26 C         139.3703  138.2754  164.8959 C.ar    1  UNL1       -0.0017
     27 C         139.1180  139.0979  166.1246 C.ar    1  UNL1        0.0100
     28 N         139.7671  141.3104  169.3547 N.1     1  UNL1       -0.1908
     29 C         140.0194  140.4879  168.1259 C.1     1  UNL1        0.1004
     30 C         138.6771  140.6714  159.3240 C.3     1  UNL1        0.0902
     31 C         139.7089  141.3993  158.5144 C.3     1  UNL1        0.0897
     32 N         140.4716  142.5391  159.1218 N.3     1  UNL1       -0.2691
     33 C         141.9652  142.4647  159.2382 C.3     1  UNL1        0.0895
     34 C         142.7278  143.6046  159.8457 C.3     1  UNL1        0.0862
     35 N         141.9969  144.8190  160.3368 N.3     1  UNL1       -0.2951
     36 C         140.5033  144.8934  160.2204 C.3     1  UNL1        0.0862
     37 C         139.7406  143.7534  159.6129 C.3     1  UNL1        0.0895
     38 H         142.3723  145.6163  159.8234 H       1  UNL1        0.1233
@<TRIPOS>BOND
     1    28    29    3
     2    29    22    1
     3    22    23   ar
     4    23    24   ar
     5    24    25   ar
     6    25    21    1
     7    21    16    1
     8    16    17   ar
     9    17    18   ar
    10    18    19   ar
    11    19    20   ar
    12    20    15    1
    13    15     1    1
    14     1    30    1
    15    30    31    1
    16    31    32    1
    17    32    33    1
    18    33    34    1
    19    34    35    1
    20    35    36    1
    21    36    37    1
    22     2     1    1
    23     2     3    1
    24     3     4    1
    25     4     5    1
    26     5     8    1
    27     8     9    1
    28     9    10   ar
    29    10    11   ar
    30    11    12   ar
    31    12    13   ar
    32    13    14   ar
    33     5     6   am
    34     6     7    2
    35    25    26   ar
    36    26    27   ar
    37    27    22   ar
    38    20    16   ar
    39    37    32    1
    40     6     2    1
    41    14     9   ar
    42    35    38    1
@<TRIPOS>MOLECULE
*****
 38 42 0 0 0
SMALL
GASTEIGER

@<TRIPOS>ATOM
      1 N         142.9729  142.2517  160.5414 N.3     1  UNL1       -0.2602
      2 C         143.6051  142.3472  161.8983 C.3     1  UNL1        0.1370
      3 C         145.0614  142.1632  162.2074 C.3     1  UNL1        0.0468
      4 C         145.2483  142.3457  163.6845 C.3     1  UNL1        0.0957
      5 N         143.9077  142.6424  164.2882 N.am    1  UNL1       -0.2743
      6 C         142.8921  142.6433  163.1843 C.2     1  UNL1        0.2404
      7 O         141.4217  142.8960  163.3393 O.2     1  UNL1       -0.2734
      8 C         143.6311  142.8940  165.7409 C.3     1  UNL1        0.1202
      9 C         143.1925  141.7661  166.6272 C.ar    1  UNL1       -0.0023
     10 C         142.7723  140.4584  166.0244 C.ar    1  UNL1       -0.0026
     11 C         142.3336  139.3305  166.9107 C.ar    1  UNL1       -0.0003
     12 C         142.3152  139.5103  168.3998 C.ar    1  UNL1       -0.0000
     13 C         142.7354  140.8180  169.0026 C.ar    1  UNL1       -0.0003
     14 C         143.1740  141.9460  168.1163 C.ar    1  UNL1       -0.0026
     15 C         142.7203  140.9079  159.9245 C.3     1  UNL1        0.1187
     16 N         140.6239  139.6637  161.0209 N.ar    1  UNL1       -0.3070
     17 C         139.2573  139.2684  160.5452 C.ar    1  UNL1        0.1786
     18 N         139.1176  139.7095  159.1183 N.ar    1  UNL1       -0.2226
     19 C         140.3979  140.3774  158.7121 C.ar    1  UNL1        0.1147
     20 C         141.3288  140.3490  159.8880 C.ar    1  UNL1        0.0741
     21 C         141.1868  139.4169  162.3892 C.3     1  UNL1        0.1340
     22 C         138.4341  138.4362  165.8113 C.ar    1  UNL1        0.0684
     23 C         138.4853  139.8328  165.2665 C.ar    1  UNL1        0.0100
     24 C         139.4028  140.1597  164.1258 C.ar    1  UNL1       -0.0017
     25 C         140.2692  139.0900  163.5299 C.ar    1  UNL1        0.0005
     26 C         140.2180  137.6934  164.0747 C.ar    1  UNL1       -0.0017
     27 C         139.3005  137.3665  165.2154 C.ar    1  UNL1        0.0100
     28 N         136.5990  137.7824  168.0927 N.1     1  UNL1       -0.1908
     29 C         137.5165  138.1093  166.9520 C.1     1  UNL1        0.1004
     30 C         142.5933  143.5000  159.8014 C.3     1  UNL1        0.0902
     31 C         141.1581  143.7550  159.4476 C.3     1  UNL1        0.0897
     32 N         140.1597  144.0466  160.5284 N.3     1  UNL1       -0.2691
     33 C         140.2308  145.3389  161.2865 C.3     1  UNL1        0.0895
     34 C         139.2324  145.6303  162.3673 C.3     1  UNL1        0.0862
     35 N         138.1627  144.6295  162.6900 N.3     1  UNL1       -0.2951
     36 C         138.0915  143.3371  161.9319 C.3     1  UNL1        0.0862
     37 C         139.0900  143.0457  160.8510 C.3     1  UNL1        0.0895
     38 H         137.2681  145.1003  162.5539 H       1  UNL1        0.1233
@<TRIPOS>BOND
     1    28    29    3
     2    29    22    1
     3    22    23   ar
     4    23    24   ar
     5    24    25   ar
     6    25    21    1
     7    21    16    1
     8    16    17   ar
     9    17    18   ar
    10    18    19   ar
    11    19    20   ar
    12    20    15    1
    13    15     1    1
    14     1    30    1
    15    30    31    1
    16    31    32    1
    17    32    33    1
    18    33    34    1
    19    34    35    1
    20    35    36    1
    21    36    37    1
    22     2     1    1
    23     2     3    1
    24     3     4    1
    25     4     5    1
    26     5     8    1
    27     8     9    1
    28     9    10   ar
    29    10    11   ar
    30    11    12   ar
    31    12    13   ar
    32    13    14   ar
    33     5     6   am
    34     6     7    2
    35    25    26   ar
    36    26    27   ar
    37    27    22   ar
    38    20    16   ar
    39    37    32    1
    40     6     2    1
    41    14     9   ar
    42    35    38    1
