@<TRIPOS>MOLECULE
*****
 40 46 0 0 0
SMALL
GASTEIGER

@<TRIPOS>ATOM
      1 C         137.7058  139.4719  161.7276 C.3     1  UNL1        0.0700
      2 C         137.6798  140.6337  162.6761 C.3     1  UNL1        0.0193
      3 C         138.2623  140.4924  164.0512 C.3     1  UNL1        0.0287
      4 C         138.8707  139.1893  164.4778 C.3     1  UNL1        0.0955
      5 C         138.8966  138.0276  163.5293 C.3     1  UNL1        0.0287
      6 C         138.3142  138.1689  162.1542 C.3     1  UNL1        0.0193
      7 O         138.5639  139.2189  163.7143 O.3     1  UNL1       -0.3571
      8 C         138.0373  139.3466  162.4710 C.3     1  UNL1        0.1562
      9 N         137.1234  139.6132  160.3525 N.3     1  UNL1       -0.2926
     10 H         136.8769  138.6743  160.0393 H       1  UNL1        0.1236
     11 C         137.9339  140.2369  159.2553 C.3     1  UNL1        0.1152
     12 O         141.8621  134.9625  155.0718 O.2     1  UNL1       -0.2707
     13 C         141.8532  136.1004  156.0492 C.2     1  UNL1        0.2718
     14 C         143.1448  136.6180  156.6093 C.3     1  UNL1        0.2898
     15 O         143.1360  137.7559  157.5866 O.3     1  UNL1       -0.4628
     16 C         141.8354  138.3762  158.0038 C.ar    1  UNL1        0.1708
     17 C         141.8265  139.5140  158.9811 C.ar    1  UNL1        0.0411
     18 C         140.5260  140.1343  159.3982 C.ar    1  UNL1        0.0193
     19 C         139.2344  139.6166  158.8381 C.ar    1  UNL1        0.0765
     20 N         139.2433  138.4787  157.8608 N.ar    1  UNL1       -0.2304
     21 C         140.5438  137.8585  157.4436 C.ar    1  UNL1        0.1682
     22 N         140.5527  136.7206  156.4663 N.am    1  UNL1       -0.2639
     23 H         139.7049  136.3809  156.0987 H       1  UNL1        0.1565
     24 C         139.4531  139.0481  165.8529 C.3     1  UNL1        0.0603
     25 C         140.5540  139.9641  166.2989 C.3     1  UNL1        0.1322
     26 O         141.1047  139.7137  164.9263 O.3     1  UNL1       -0.3806
     27 C         141.7700  140.8277  166.4579 C.3     1  UNL1        0.1401
     28 N         141.7407  141.4205  167.8355 N.ar    1  UNL1       -0.2915
     29 C         142.6784  142.3488  168.5489 C.ar    1  UNL1        0.2611
     30 O         143.9126  142.8461  167.8565 O.2     1  UNL1       -0.2670
     31 C         142.3819  142.7797  169.9547 C.ar    1  UNL1        0.0623
     32 C         141.1477  142.2824  170.6471 C.ar    1  UNL1        0.0254
     33 C         140.2100  141.3541  169.9337 C.ar    1  UNL1        0.0971
     34 N         138.9211  140.7082  170.3719 N.ar    1  UNL1       -0.2415
     35 C         138.0810  139.7890  169.5358 C.ar    1  UNL1        0.1100
     36 C         138.5070  139.4464  168.1389 C.ar    1  UNL1        0.0764
     37 CL        137.6668  138.5272  167.3028 Cl      1  UNL1       -0.0808
     38 C         139.7731  140.0230  167.5782 C.ar    1  UNL1        0.0331
     39 C         140.5065  140.9231  168.5279 C.ar    1  UNL1        0.0792
     40 H         141.9337  140.2052  164.8159 H       1  UNL1        0.2108
@<TRIPOS>BOND
     1    12    13    2
     2    13    14    1
     3    14    15    1
     4    15    16    1
     5    16    17   ar
     6    17    18   ar
     7    18    19   ar
     8    19    11    1
     9    11     9    1
    10     9     1    1
    11     1     2    1
    12     2     3    1
    13     3     4    1
    14     4    24    1
    15    24    25    1
    16    25    26    1
    17    25    27    1
    18    27    28    1
    19    28    29   ar
    20    29    30    2
    21    29    31   ar
    22    31    32   ar
    23    32    33   ar
    24    33    34   ar
    25    34    35   ar
    26    35    36   ar
    27    36    37    1
    28    36    38   ar
    29    38    39   ar
    30     4     5    1
    31     5     6    1
    32     4     7    1
    33     7     8    1
    34    19    20   ar
    35    20    21   ar
    36    21    22    1
    37    22    13   am
    38    21    16   ar
    39     6     1    1
    40     8     1    1
    41    38    25    1
    42    39    28   ar
    43    39    33   ar
    44     9    10    1
    45    26    40    1
    46    22    23    1
@<TRIPOS>MOLECULE
*****
 40 46 0 0 0
SMALL
GASTEIGER

@<TRIPOS>ATOM
      1 C         137.7184  139.5661  161.8643 C.3     1  UNL1        0.0700
      2 C         137.6039  140.6770  162.8657 C.3     1  UNL1        0.0193
      3 C         138.1794  140.5095  164.2408 C.3     1  UNL1        0.0287
      4 C         138.8693  139.2310  164.6145 C.3     1  UNL1        0.0955
      5 C         138.9837  138.1201  163.6131 C.3     1  UNL1        0.0287
      6 C         138.4082  138.2877  162.2380 C.3     1  UNL1        0.0193
      7 O         138.5696  139.2764  163.8489 O.3     1  UNL1       -0.3571
      8 C         138.0493  139.4279  162.6056 C.3     1  UNL1        0.1562
      9 N         137.1429  139.7337  160.4893 N.3     1  UNL1       -0.2926
     10 H         136.8855  138.8024  160.1623 H       1  UNL1        0.1236
     11 C         137.9654  140.3618  159.4035 C.3     1  UNL1        0.1152
     12 O         143.9211  144.5489  162.1872 O.2     1  UNL1       -0.2707
     13 C         143.4110  143.3451  161.4518 C.2     1  UNL1        0.2718
     14 C         144.3762  142.3334  160.9088 C.3     1  UNL1        0.2898
     15 O         143.8662  141.1296  160.1734 O.3     1  UNL1       -0.4628
     16 C         142.3910  140.9377  159.9809 C.ar    1  UNL1        0.1708
     17 C         141.8809  139.7339  159.2455 C.ar    1  UNL1        0.0411
     18 C         140.4057  139.5420  159.0530 C.ar    1  UNL1        0.0193
     19 C         139.4406  140.5538  159.5960 C.ar    1  UNL1        0.0765
     20 N         139.9507  141.7575  160.3315 N.ar    1  UNL1       -0.2304
     21 C         141.4259  141.9494  160.5239 C.ar    1  UNL1        0.1682
     22 N         141.9359  143.1532  161.2593 N.am    1  UNL1       -0.2639
     23 H         141.3024  143.8172  161.6157 H       1  UNL1        0.1565
     24 C         139.4447  139.0635  165.9896 C.3     1  UNL1        0.0603
     25 C         140.5495  139.9649  166.4552 C.3     1  UNL1        0.1322
     26 O         141.1172  139.7138  165.0897 O.3     1  UNL1       -0.3806
     27 C         141.7729  140.8139  166.6354 C.3     1  UNL1        0.1401
     28 N         141.7304  141.4013  168.0150 N.ar    1  UNL1       -0.2915
     29 C         142.6682  142.3159  168.7458 C.ar    1  UNL1        0.2611
     30 O         143.9179  142.8018  168.0733 O.2     1  UNL1       -0.2670
     31 C         142.3563  142.7445  170.1489 C.ar    1  UNL1        0.0623
     32 C         141.1066  142.2585  170.8213 C.ar    1  UNL1        0.0254
     33 C         140.1689  141.3440  170.0906 C.ar    1  UNL1        0.0971
     34 N         138.8665  140.7111  170.5074 N.ar    1  UNL1       -0.2415
     35 C         138.0281  139.8050  169.6553 C.ar    1  UNL1        0.1100
     36 C         138.4703  139.4633  168.2633 C.ar    1  UNL1        0.0764
     37 CL        137.6319  138.5572  167.4113 Cl      1  UNL1       -0.0808
     38 C         139.7509  140.0276  167.7234 C.ar    1  UNL1        0.0331
     39 C         140.4808  140.9154  168.6874 C.ar    1  UNL1        0.0792
     40 H         141.9532  140.1962  164.9933 H       1  UNL1        0.2108
@<TRIPOS>BOND
     1    12    13    2
     2    13    14    1
     3    14    15    1
     4    15    16    1
     5    16    17   ar
     6    17    18   ar
     7    18    19   ar
     8    19    11    1
     9    11     9    1
    10     9     1    1
    11     1     2    1
    12     2     3    1
    13     3     4    1
    14     4    24    1
    15    24    25    1
    16    25    26    1
    17    25    27    1
    18    27    28    1
    19    28    29   ar
    20    29    30    2
    21    29    31   ar
    22    31    32   ar
    23    32    33   ar
    24    33    34   ar
    25    34    35   ar
    26    35    36   ar
    27    36    37    1
    28    36    38   ar
    29    38    39   ar
    30     4     5    1
    31     5     6    1
    32     4     7    1
    33     7     8    1
    34    19    20   ar
    35    20    21   ar
    36    21    22    1
    37    22    13   am
    38    21    16   ar
    39     6     1    1
    40     8     1    1
    41    38    25    1
    42    39    28   ar
    43    39    33   ar
    44     9    10    1
    45    26    40    1
    46    22    23    1
@<TRIPOS>MOLECULE
*****
 40 46 0 0 0
SMALL
GASTEIGER

@<TRIPOS>ATOM
      1 C         137.8578  139.5379  161.2239 C.3     1  UNL1        0.0700
      2 C         138.2729  140.6383  162.1550 C.3     1  UNL1        0.0193
      3 C         138.9887  140.3103  163.4318 C.3     1  UNL1        0.0287
      4 C         139.2893  138.8819  163.7775 C.3     1  UNL1        0.0955
      5 C         138.8742  137.7816  162.8464 C.3     1  UNL1        0.0287
      6 C         138.1585  138.1096  161.5696 C.3     1  UNL1        0.0193
      7 O         138.8950  139.0125  163.0666 O.3     1  UNL1       -0.3571
      8 C         138.2478  139.3091  161.9122 C.3     1  UNL1        0.1562
      9 N         137.1421  139.8659  159.9471 N.3     1  UNL1       -0.2926
     10 H         136.6596  139.0166  159.6535 H       1  UNL1        0.1236
     11 C         137.9148  140.3576  158.7593 C.3     1  UNL1        0.1152
     12 O         141.9418  134.6716  155.2658 O.2     1  UNL1       -0.2707
     13 C         141.9123  135.9342  156.0753 C.2     1  UNL1        0.2718
     14 C         143.1956  136.5638  156.5297 C.3     1  UNL1        0.2898
     15 O         143.1662  137.8263  157.3392 O.3     1  UNL1       -0.4628
     16 C         141.8533  138.4591  157.6942 C.ar    1  UNL1        0.1708
     17 C         141.8238  139.7216  158.5037 C.ar    1  UNL1        0.0411
     18 C         140.5110  140.3544  158.8587 C.ar    1  UNL1        0.0193
     19 C         139.2276  139.7247  158.4042 C.ar    1  UNL1        0.0765
     20 N         139.2571  138.4622  157.5947 N.ar    1  UNL1       -0.2304
     21 C         140.5700  137.8294  157.2397 C.ar    1  UNL1        0.1682
     22 N         140.5994  136.5670  156.4303 N.am    1  UNL1       -0.2639
     23 H         139.7571  136.1537  156.1320 H       1  UNL1        0.1565
     24 C         140.0051  138.5540  165.0543 C.3     1  UNL1        0.0603
     25 C         139.4233  138.9775  166.3704 C.3     1  UNL1        0.1322
     26 O         138.2407  138.1667  165.9299 O.3     1  UNL1       -0.3806
     27 C         138.5943  139.2316  167.5944 C.3     1  UNL1        0.1401
     28 N         139.3862  140.1109  168.5162 N.ar    1  UNL1       -0.2915
     29 C         139.0770  140.6855  169.8669 C.ar    1  UNL1        0.2611
     30 O         137.7586  140.3961  170.5211 O.2     1  UNL1       -0.2670
     31 C         140.0863  141.5494  170.5632 C.ar    1  UNL1        0.0623
     32 C         141.4047  141.8387  169.9090 C.ar    1  UNL1        0.0254
     33 C         141.7139  141.2642  168.5583 C.ar    1  UNL1        0.0971
     34 N         142.9315  141.3837  167.6789 N.ar    1  UNL1       -0.2415
     35 C         143.0985  140.7427  166.3331 C.ar    1  UNL1        0.1100
     36 C         141.9965  139.9007  165.7615 C.ar    1  UNL1        0.0764
     37 CL        142.1634  139.2597  164.4157 Cl      1  UNL1       -0.0808
     38 C         140.7275  139.6998  166.5358 C.ar    1  UNL1        0.0331
     39 C         140.7046  140.4003  167.8620 C.ar    1  UNL1        0.0792
     40 H         137.5534  138.1997  166.6135 H       1  UNL1        0.2108
@<TRIPOS>BOND
     1    12    13    2
     2    13    14    1
     3    14    15    1
     4    15    16    1
     5    16    17   ar
     6    17    18   ar
     7    18    19   ar
     8    19    11    1
     9    11     9    1
    10     9     1    1
    11     1     2    1
    12     2     3    1
    13     3     4    1
    14     4    24    1
    15    24    25    1
    16    25    26    1
    17    25    27    1
    18    27    28    1
    19    28    29   ar
    20    29    30    2
    21    29    31   ar
    22    31    32   ar
    23    32    33   ar
    24    33    34   ar
    25    34    35   ar
    26    35    36   ar
    27    36    37    1
    28    36    38   ar
    29    38    39   ar
    30     4     5    1
    31     5     6    1
    32     4     7    1
    33     7     8    1
    34    19    20   ar
    35    20    21   ar
    36    21    22    1
    37    22    13   am
    38    21    16   ar
    39     6     1    1
    40     8     1    1
    41    38    25    1
    42    39    28   ar
    43    39    33   ar
    44     9    10    1
    45    26    40    1
    46    22    23    1
@<TRIPOS>MOLECULE
*****
 40 46 0 0 0
SMALL
GASTEIGER

@<TRIPOS>ATOM
      1 C         144.3460  140.2102  157.3836 C.3     1  UNL1        0.0700
      2 C         145.0028  141.5583  157.3506 C.3     1  UNL1        0.0193
      3 C         144.8493  142.4960  158.5113 C.3     1  UNL1        0.0287
      4 C         144.0390  142.0855  159.7051 C.3     1  UNL1        0.0955
      5 C         143.3822  140.7374  159.7381 C.3     1  UNL1        0.0287
      6 C         143.5357  139.7997  158.5773 C.3     1  UNL1        0.0193
      7 O         144.0946  141.5376  159.0930 O.3     1  UNL1       -0.3571
      8 C         144.2334  140.6898  158.0435 C.3     1  UNL1        0.1562
      9 N         144.4994  139.2725  156.2229 N.3     1  UNL1       -0.2926
     10 H         145.0563  139.7608  155.5216 H       1  UNL1        0.1236
     11 C         143.2843  138.7442  155.5200 C.3     1  UNL1        0.1152
     12 O         144.9959  131.5217  157.8984 O.2     1  UNL1       -0.2707
     13 C         144.0522  132.4824  157.2376 C.2     1  UNL1        0.2718
     14 C         142.7354  131.9961  156.7089 C.3     1  UNL1        0.2898
     15 O         141.7917  132.9568  156.0481 O.3     1  UNL1       -0.4628
     16 C         142.1648  134.4036  155.9161 C.ar    1  UNL1        0.1708
     17 C         141.2212  135.3643  155.2553 C.ar    1  UNL1        0.0411
     18 C         141.5944  136.8111  155.1233 C.ar    1  UNL1        0.0193
     19 C         142.9112  137.2973  155.6520 C.ar    1  UNL1        0.0765
     20 N         143.8548  136.3366  156.3128 N.ar    1  UNL1       -0.2304
     21 C         143.4817  134.8898  156.4448 C.ar    1  UNL1        0.1682
     22 N         144.4254  133.9292  157.1056 N.am    1  UNL1       -0.2639
     23 H         145.2896  134.2483  157.4526 H       1  UNL1        0.1565
     24 C         143.8855  143.0232  160.8658 C.3     1  UNL1        0.0603
     25 C         142.5512  143.6430  161.1579 C.3     1  UNL1        0.1322
     26 O         142.5871  144.0246  159.7077 O.3     1  UNL1       -0.3806
     27 C         141.2243  144.3425  161.1469 C.3     1  UNL1        0.1401
     28 N         140.6472  144.2637  162.5292 N.ar    1  UNL1       -0.2915
     29 C         139.3637  144.7767  163.1117 C.ar    1  UNL1        0.2611
     30 O         138.3935  145.5249  162.2464 O.2     1  UNL1       -0.2670
     31 C         139.0503  144.5413  164.5596 C.ar    1  UNL1        0.0623
     32 C         140.0205  143.7930  165.4250 C.ar    1  UNL1        0.0254
     33 C         141.3041  143.2801  164.8424 C.ar    1  UNL1        0.0971
     34 N         142.4428  142.5115  165.4611 N.ar    1  UNL1       -0.2415
     35 C         143.6797  142.0607  164.7422 C.ar    1  UNL1        0.1100
     36 C         143.8553  142.3709  163.2851 C.ar    1  UNL1        0.0764
     37 CL        145.0922  141.9201  162.5662 Cl      1  UNL1       -0.0808
     38 C         142.7941  143.1318  162.5471 C.ar    1  UNL1        0.0331
     39 C         141.6174  143.5155  163.3946 C.ar    1  UNL1        0.0792
     40 H         141.7792  144.5112  159.4813 H       1  UNL1        0.2108
@<TRIPOS>BOND
     1    12    13    2
     2    13    14    1
     3    14    15    1
     4    15    16    1
     5    16    17   ar
     6    17    18   ar
     7    18    19   ar
     8    19    11    1
     9    11     9    1
    10     9     1    1
    11     1     2    1
    12     2     3    1
    13     3     4    1
    14     4    24    1
    15    24    25    1
    16    25    26    1
    17    25    27    1
    18    27    28    1
    19    28    29   ar
    20    29    30    2
    21    29    31   ar
    22    31    32   ar
    23    32    33   ar
    24    33    34   ar
    25    34    35   ar
    26    35    36   ar
    27    36    37    1
    28    36    38   ar
    29    38    39   ar
    30     4     5    1
    31     5     6    1
    32     4     7    1
    33     7     8    1
    34    19    20   ar
    35    20    21   ar
    36    21    22    1
    37    22    13   am
    38    21    16   ar
    39     6     1    1
    40     8     1    1
    41    38    25    1
    42    39    28   ar
    43    39    33   ar
    44     9    10    1
    45    26    40    1
    46    22    23    1
@<TRIPOS>MOLECULE
*****
 40 46 0 0 0
SMALL
GASTEIGER

@<TRIPOS>ATOM
      1 C         142.5175  138.5142  159.6972 C.3     1  UNL1        0.0700
      2 C         142.5053  137.7276  160.9743 C.3     1  UNL1        0.0193
      3 C         141.7815  138.2592  162.1758 C.3     1  UNL1        0.0287
      4 C         141.0698  139.5776  162.1001 C.3     1  UNL1        0.0955
      5 C         141.0819  140.3642  160.8229 C.3     1  UNL1        0.0287
      6 C         141.8058  139.8325  159.6215 C.3     1  UNL1        0.0193
      7 O         141.4528  139.3271  161.4156 O.3     1  UNL1       -0.3571
      8 C         142.1073  138.8465  160.3292 C.3     1  UNL1        0.1562
      9 N         143.2413  137.9826  158.4958 N.3     1  UNL1       -0.2926
     10 H         143.8910  138.7103  158.1976 H       1  UNL1        0.1236
     11 C         142.4696  137.5659  157.2790 C.3     1  UNL1        0.1152
     12 O         144.8905  130.2177  158.2246 O.2     1  UNL1       -0.2707
     13 C         144.0354  131.2220  157.5102 C.2     1  UNL1        0.2718
     14 C         143.1322  130.7811  156.3967 C.3     1  UNL1        0.2898
     15 O         142.2771  131.7854  155.6823 O.3     1  UNL1       -0.4628
     16 C         142.3252  133.2305  156.0815 C.ar    1  UNL1        0.1708
     17 C         141.4702  134.2348  155.3672 C.ar    1  UNL1        0.0411
     18 C         141.5183  135.6799  155.7663 C.ar    1  UNL1        0.0193
     19 C         142.4215  136.1207  156.8798 C.ar    1  UNL1        0.0765
     20 N         143.2766  135.1164  157.5942 N.ar    1  UNL1       -0.2304
     21 C         143.2284  133.6713  157.1950 C.ar    1  UNL1        0.1682
     22 N         144.0835  132.6671  157.9094 N.am    1  UNL1       -0.2639
     23 H         144.6763  132.9565  158.6402 H       1  UNL1        0.1565
     24 C         140.3459  140.1092  163.3015 C.3     1  UNL1        0.0603
     25 C         141.1175  140.7300  164.4281 C.3     1  UNL1        0.1322
     26 O         141.9905  141.2599  163.3294 O.3     1  UNL1       -0.3806
     27 C         142.0716  141.4615  165.3250 C.3     1  UNL1        0.1401
     28 N         141.6271  141.2539  166.7425 N.ar    1  UNL1       -0.2915
     29 C         142.1824  141.7368  168.0495 C.ar    1  UNL1        0.2611
     30 O         143.4113  142.5966  168.0704 O.2     1  UNL1       -0.2670
     31 C         141.5089  141.3597  169.3357 C.ar    1  UNL1        0.0623
     32 C         140.2801  140.4999  169.3148 C.ar    1  UNL1        0.0254
     33 C         139.7247  140.0170  168.0078 C.ar    1  UNL1        0.0971
     34 N         138.5283  139.1582  167.6892 N.ar    1  UNL1       -0.2415
     35 C         138.0907  138.7527  166.3129 C.ar    1  UNL1        0.1100
     36 C         138.8682  139.2087  165.1140 C.ar    1  UNL1        0.0764
     37 CL        138.4307  138.8031  163.7377 Cl      1  UNL1       -0.0808
     38 C         140.0833  140.0702  165.2913 C.ar    1  UNL1        0.0331
     39 C         140.3982  140.3940  166.7216 C.ar    1  UNL1        0.0792
     40 H         142.7077  141.7887  163.7129 H       1  UNL1        0.2108
@<TRIPOS>BOND
     1    12    13    2
     2    13    14    1
     3    14    15    1
     4    15    16    1
     5    16    17   ar
     6    17    18   ar
     7    18    19   ar
     8    19    11    1
     9    11     9    1
    10     9     1    1
    11     1     2    1
    12     2     3    1
    13     3     4    1
    14     4    24    1
    15    24    25    1
    16    25    26    1
    17    25    27    1
    18    27    28    1
    19    28    29   ar
    20    29    30    2
    21    29    31   ar
    22    31    32   ar
    23    32    33   ar
    24    33    34   ar
    25    34    35   ar
    26    35    36   ar
    27    36    37    1
    28    36    38   ar
    29    38    39   ar
    30     4     5    1
    31     5     6    1
    32     4     7    1
    33     7     8    1
    34    19    20   ar
    35    20    21   ar
    36    21    22    1
    37    22    13   am
    38    21    16   ar
    39     6     1    1
    40     8     1    1
    41    38    25    1
    42    39    28   ar
    43    39    33   ar
    44     9    10    1
    45    26    40    1
    46    22    23    1
@<TRIPOS>MOLECULE
*****
 40 46 0 0 0
SMALL
GASTEIGER

@<TRIPOS>ATOM
      1 C         141.1647  139.2229  158.2743 C.3     1  UNL1        0.0700
      2 C         139.9576  138.3772  158.5529 C.3     1  UNL1        0.0193
      3 C         139.5552  138.0877  159.9686 C.3     1  UNL1        0.0287
      4 C         140.3600  138.6440  161.1058 C.3     1  UNL1        0.0955
      5 C         141.5671  139.4897  160.8272 C.3     1  UNL1        0.0287
      6 C         141.9694  139.7791  159.4114 C.3     1  UNL1        0.0193
      7 O         140.6195  138.8298  160.3468 O.3     1  UNL1       -0.3571
      8 C         140.9833  139.0915  159.0667 C.3     1  UNL1        0.1562
      9 N         141.5672  139.5123  156.8586 N.3     1  UNL1       -0.2926
     10 H         140.7248  139.4271  156.2897 H       1  UNL1        0.1236
     11 C         142.6241  138.6807  156.1944 C.3     1  UNL1        0.1152
     12 O         145.1220  131.5134  157.9671 O.2     1  UNL1       -0.2707
     13 C         144.1294  132.4135  157.2925 C.2     1  UNL1        0.2718
     14 C         142.9771  131.8243  156.5344 C.3     1  UNL1        0.2898
     15 O         141.9845  132.7242  155.8598 O.3     1  UNL1       -0.4628
     16 C         142.1444  134.2133  155.9435 C.ar    1  UNL1        0.1708
     17 C         141.1519  135.1133  155.2690 C.ar    1  UNL1        0.0411
     18 C         141.3118  136.6024  155.3526 C.ar    1  UNL1        0.0193
     19 C         142.4643  137.1915  156.1108 C.ar    1  UNL1        0.0765
     20 N         143.4568  136.2916  156.7853 N.ar    1  UNL1       -0.2304
     21 C         143.2968  134.8025  156.7016 C.ar    1  UNL1        0.1682
     22 N         144.2894  133.9026  157.3762 N.am    1  UNL1       -0.2639
     23 H         145.0457  134.2893  157.8738 H       1  UNL1        0.1565
     24 C         139.9576  138.3545  162.5215 C.3     1  UNL1        0.0603
     25 C         141.0076  138.1623  163.5753 C.3     1  UNL1        0.1322
     26 O         141.5238  137.1049  162.6450 O.3     1  UNL1       -0.3806
     27 C         142.1655  137.7490  164.4347 C.3     1  UNL1        0.1401
     28 N         142.1454  138.5912  165.6758 N.ar    1  UNL1       -0.2915
     29 C         143.0416  138.6284  166.8781 C.ar    1  UNL1        0.2611
     30 O         144.2120  137.6947  166.9703 O.2     1  UNL1       -0.2670
     31 C         142.7675  139.5993  167.9880 C.ar    1  UNL1        0.0623
     32 C         141.5972  140.5331  167.8958 C.ar    1  UNL1        0.0254
     33 C         140.7010  140.4958  166.6935 C.ar    1  UNL1        0.0971
     34 N         139.4772  141.2993  166.3369 N.ar    1  UNL1       -0.2415
     35 C         138.6731  141.1473  165.0799 C.ar    1  UNL1        0.1100
     36 C         139.0704  140.1276  164.0541 C.ar    1  UNL1        0.0764
     37 CL        138.2663  139.9756  162.7970 Cl      1  UNL1       -0.0808
     38 C         140.2719  139.2598  164.2854 C.ar    1  UNL1        0.0331
     39 C         140.9751  139.5249  165.5836 C.ar    1  UNL1        0.0792
     40 H         142.3118  136.6914  163.0309 H       1  UNL1        0.2108
@<TRIPOS>BOND
     1    12    13    2
     2    13    14    1
     3    14    15    1
     4    15    16    1
     5    16    17   ar
     6    17    18   ar
     7    18    19   ar
     8    19    11    1
     9    11     9    1
    10     9     1    1
    11     1     2    1
    12     2     3    1
    13     3     4    1
    14     4    24    1
    15    24    25    1
    16    25    26    1
    17    25    27    1
    18    27    28    1
    19    28    29   ar
    20    29    30    2
    21    29    31   ar
    22    31    32   ar
    23    32    33   ar
    24    33    34   ar
    25    34    35   ar
    26    35    36   ar
    27    36    37    1
    28    36    38   ar
    29    38    39   ar
    30     4     5    1
    31     5     6    1
    32     4     7    1
    33     7     8    1
    34    19    20   ar
    35    20    21   ar
    36    21    22    1
    37    22    13   am
    38    21    16   ar
    39     6     1    1
    40     8     1    1
    41    38    25    1
    42    39    28   ar
    43    39    33   ar
    44     9    10    1
    45    26    40    1
    46    22    23    1
@<TRIPOS>MOLECULE
*****
 40 46 0 0 0
SMALL
GASTEIGER

@<TRIPOS>ATOM
      1 C         142.1713  137.8160  157.9869 C.3     1  UNL1        0.0700
      2 C         140.7865  137.9348  157.4228 C.3     1  UNL1        0.0193
      3 C         139.6942  138.5574  158.2410 C.3     1  UNL1        0.0287
      4 C         139.9868  139.0612  159.6233 C.3     1  UNL1        0.0955
      5 C         141.3716  138.9424  160.1874 C.3     1  UNL1        0.0287
      6 C         142.4638  138.3198  159.3691 C.3     1  UNL1        0.0193
      7 O         140.6178  138.7275  159.2128 O.3     1  UNL1       -0.3571
      8 C         141.6054  138.1646  158.4730 C.3     1  UNL1        0.1562
      9 N         143.2636  137.1935  157.1687 N.3     1  UNL1       -0.2926
     10 H         143.8762  137.9521  156.8695 H       1  UNL1        0.1236
     11 C         142.9227  136.4022  155.9409 C.3     1  UNL1        0.1152
     12 O         145.2373  129.5544  158.8566 O.2     1  UNL1       -0.2707
     13 C         144.3235  130.3461  157.9687 C.2     1  UNL1        0.2718
     14 C         143.2677  129.6469  157.1648 C.3     1  UNL1        0.2898
     15 O         142.3539  130.4386  156.2769 O.3     1  UNL1       -0.4628
     16 C         142.4961  131.9295  156.1929 C.ar    1  UNL1        0.1708
     17 C         141.5824  132.7212  155.3050 C.ar    1  UNL1        0.0411
     18 C         141.7246  134.2121  155.2211 C.ar    1  UNL1        0.0193
     19 C         142.7805  134.9113  156.0249 C.ar    1  UNL1        0.0765
     20 N         143.6942  134.1195  156.9128 N.ar    1  UNL1       -0.2304
     21 C         143.5520  132.6286  156.9968 C.ar    1  UNL1        0.1682
     22 N         144.4657  131.8370  157.8847 N.am    1  UNL1       -0.2639
     23 H         145.1587  132.2959  158.4123 H       1  UNL1        0.1565
     24 C         138.8945  139.6837  160.4415 C.3     1  UNL1        0.0603
     25 C         138.9199  141.1554  160.7306 C.3     1  UNL1        0.1322
     26 O         139.1156  141.2833  159.2489 O.3     1  UNL1       -0.3806
     27 C         138.9861  142.6538  160.7099 C.3     1  UNL1        0.1401
     28 N         138.8260  143.1443  162.1184 N.ar    1  UNL1       -0.2915
     29 C         138.8093  144.5249  162.7045 C.ar    1  UNL1        0.2611
     30 O         138.9746  145.7201  161.8134 O.2     1  UNL1       -0.2670
     31 C         138.6274  144.7103  164.1819 C.ar    1  UNL1        0.0623
     32 C         138.4622  143.5150  165.0730 C.ar    1  UNL1        0.0254
     33 C         138.4789  142.1345  164.4868 C.ar    1  UNL1        0.0971
     34 N         138.3390  140.7776  165.1271 N.ar    1  UNL1       -0.2415
     35 C         138.3766  139.4656  164.4012 C.ar    1  UNL1        0.1100
     36 C         138.5665  139.4367  162.9135 C.ar    1  UNL1        0.0764
     37 CL        138.6040  138.1246  162.1876 Cl      1  UNL1       -0.0808
     38 C         138.7188  140.7199  162.1518 C.ar    1  UNL1        0.0331
     39 C         138.6608  141.9491  163.0095 C.ar    1  UNL1        0.0792
     40 H         139.1859  142.2212  159.0118 H       1  UNL1        0.2108
@<TRIPOS>BOND
     1    12    13    2
     2    13    14    1
     3    14    15    1
     4    15    16    1
     5    16    17   ar
     6    17    18   ar
     7    18    19   ar
     8    19    11    1
     9    11     9    1
    10     9     1    1
    11     1     2    1
    12     2     3    1
    13     3     4    1
    14     4    24    1
    15    24    25    1
    16    25    26    1
    17    25    27    1
    18    27    28    1
    19    28    29   ar
    20    29    30    2
    21    29    31   ar
    22    31    32   ar
    23    32    33   ar
    24    33    34   ar
    25    34    35   ar
    26    35    36   ar
    27    36    37    1
    28    36    38   ar
    29    38    39   ar
    30     4     5    1
    31     5     6    1
    32     4     7    1
    33     7     8    1
    34    19    20   ar
    35    20    21   ar
    36    21    22    1
    37    22    13   am
    38    21    16   ar
    39     6     1    1
    40     8     1    1
    41    38    25    1
    42    39    28   ar
    43    39    33   ar
    44     9    10    1
    45    26    40    1
    46    22    23    1
@<TRIPOS>MOLECULE
*****
 40 46 0 0 0
SMALL
GASTEIGER

@<TRIPOS>ATOM
      1 C         141.0983  144.6498  161.6785 C.3     1  UNL1        0.0700
      2 C         139.7674  144.0278  161.9812 C.3     1  UNL1        0.0193
      3 C         139.6439  143.0214  163.0866 C.3     1  UNL1        0.0287
      4 C         140.8514  142.6370  163.8893 C.3     1  UNL1        0.0955
      5 C         142.1824  143.2590  163.5866 C.3     1  UNL1        0.0287
      6 C         142.3058  144.2654  162.4812 C.3     1  UNL1        0.0193
      7 O         140.9683  143.1930  163.2934 O.3     1  UNL1       -0.3571
      8 C         141.0800  144.1030  162.2939 C.3     1  UNL1        0.1562
      9 N         141.2219  145.6562  160.5731 N.3     1  UNL1       -0.2926
     10 H         140.6062  146.4335  160.8124 H       1  UNL1        0.1236
     11 C         140.8962  145.2643  159.1623 C.3     1  UNL1        0.1152
     12 O         147.2950  141.8640  156.2909 O.2     1  UNL1       -0.2707
     13 C         145.8337  141.8095  156.6256 C.2     1  UNL1        0.2718
     14 C         145.0444  140.5670  156.3377 C.3     1  UNL1        0.2898
     15 O         143.5831  140.5123  156.6723 O.3     1  UNL1       -0.4628
     16 C         142.9114  141.7003  157.2948 C.ar    1  UNL1        0.1708
     17 C         141.4503  141.6458  157.6295 C.ar    1  UNL1        0.0411
     18 C         140.7786  142.8338  158.2520 C.ar    1  UNL1        0.0193
     19 C         141.5680  144.0763  158.5398 C.ar    1  UNL1        0.0765
     20 N         143.0292  144.1309  158.2052 N.ar    1  UNL1       -0.2304
     21 C         143.7009  142.9429  157.5827 C.ar    1  UNL1        0.1682
     22 N         145.1620  142.9975  157.2481 N.am    1  UNL1       -0.2639
     23 H         145.6802  143.8130  157.4370 H       1  UNL1        0.1565
     24 C         140.7279  141.6306  164.9947 C.3     1  UNL1        0.0603
     25 C         140.6241  142.0898  166.4189 C.3     1  UNL1        0.1322
     26 O         139.7704  143.1790  165.8404 O.3     1  UNL1       -0.3806
     27 C         140.3419  142.7766  167.7222 C.3     1  UNL1        0.1401
     28 N         141.0429  142.0159  168.8085 N.ar    1  UNL1       -0.2915
     29 C         141.1221  142.2273  170.2914 C.ar    1  UNL1        0.2611
     30 O         140.4067  143.3843  170.9233 O.2     1  UNL1       -0.2670
     31 C         141.9168  141.2816  171.1423 C.ar    1  UNL1        0.0623
     32 C         142.6322  140.1245  170.5104 C.ar    1  UNL1        0.0254
     33 C         142.5530  139.9132  169.0275 C.ar    1  UNL1        0.0971
     34 N         143.1570  138.8583  168.1370 N.ar    1  UNL1       -0.2415
     35 C         142.9870  138.7750  166.6491 C.ar    1  UNL1        0.1100
     36 C         142.1583  139.7981  165.9304 C.ar    1  UNL1        0.0764
     37 CL        141.9883  139.7147  164.4424 Cl      1  UNL1       -0.0808
     38 C         141.4995  140.9045  166.6997 C.ar    1  UNL1        0.0331
     39 C         141.7583  140.8588  168.1766 C.ar    1  UNL1        0.0792
     40 H         139.4681  143.7651  166.5518 H       1  UNL1        0.2108
@<TRIPOS>BOND
     1    12    13    2
     2    13    14    1
     3    14    15    1
     4    15    16    1
     5    16    17   ar
     6    17    18   ar
     7    18    19   ar
     8    19    11    1
     9    11     9    1
    10     9     1    1
    11     1     2    1
    12     2     3    1
    13     3     4    1
    14     4    24    1
    15    24    25    1
    16    25    26    1
    17    25    27    1
    18    27    28    1
    19    28    29   ar
    20    29    30    2
    21    29    31   ar
    22    31    32   ar
    23    32    33   ar
    24    33    34   ar
    25    34    35   ar
    26    35    36   ar
    27    36    37    1
    28    36    38   ar
    29    38    39   ar
    30     4     5    1
    31     5     6    1
    32     4     7    1
    33     7     8    1
    34    19    20   ar
    35    20    21   ar
    36    21    22    1
    37    22    13   am
    38    21    16   ar
    39     6     1    1
    40     8     1    1
    41    38    25    1
    42    39    28   ar
    43    39    33   ar
    44     9    10    1
    45    26    40    1
    46    22    23    1
@<TRIPOS>MOLECULE
*****
 40 46 0 0 0
SMALL
GASTEIGER

@<TRIPOS>ATOM
      1 C         144.8753  140.7598  162.6713 C.3     1  UNL1        0.0700
      2 C         144.4050  141.2125  161.3208 C.3     1  UNL1        0.0193
      3 C         143.4032  140.3935  160.5621 C.3     1  UNL1        0.0287
      4 C         142.8717  139.1217  161.1539 C.3     1  UNL1        0.0955
      5 C         143.3420  138.6690  162.5044 C.3     1  UNL1        0.0287
      6 C         144.3438  139.4881  163.2630 C.3     1  UNL1        0.0193
      7 O         143.4194  139.5370  161.6073 O.3     1  UNL1       -0.3571
      8 C         144.3252  140.2775  162.2933 C.3     1  UNL1        0.1562
      9 N         145.8771  141.5788  163.4300 N.3     1  UNL1       -0.2926
     10 H         146.4198  140.9282  163.9980 H       1  UNL1        0.1236
     11 C         145.4124  142.6709  164.3472 C.3     1  UNL1        0.1152
     12 O         139.3418  146.5428  161.3629 O.2     1  UNL1       -0.2707
     13 C         139.9134  145.6260  162.4035 C.2     1  UNL1        0.2718
     14 C         139.0331  145.0832  163.4899 C.3     1  UNL1        0.2898
     15 O         139.6046  144.1665  164.5305 O.3     1  UNL1       -0.4628
     16 C         141.0566  143.7926  164.4847 C.ar    1  UNL1        0.1708
     17 C         141.6282  142.8759  165.5253 C.ar    1  UNL1        0.0411
     18 C         143.0802  142.5020  165.4794 C.ar    1  UNL1        0.0193
     19 C         143.9605  143.0449  164.3930 C.ar    1  UNL1        0.0765
     20 N         143.3888  143.9616  163.3524 N.ar    1  UNL1       -0.2304
     21 C         141.9369  144.3355  163.3983 C.ar    1  UNL1        0.1682
     22 N         141.3654  145.2522  162.3577 N.am    1  UNL1       -0.2639
     23 H         141.9432  145.6085  161.6446 H       1  UNL1        0.1565
     24 C         141.8699  138.3027  160.3952 C.3     1  UNL1        0.0603
     25 C         142.1105  137.9715  158.9522 C.3     1  UNL1        0.1322
     26 O         143.3692  137.3409  159.4697 O.3     1  UNL1       -0.3806
     27 C         142.6142  137.5086  157.6173 C.3     1  UNL1        0.1401
     28 N         141.6165  137.9223  156.5764 N.ar    1  UNL1       -0.2915
     29 C         141.5835  137.7374  155.0882 C.ar    1  UNL1        0.2611
     30 O         142.7038  137.0188  154.3966 O.2     1  UNL1       -0.2670
     31 C         140.4300  138.2712  154.2916 C.ar    1  UNL1        0.0623
     32 C         139.3097  138.9899  154.9832 C.ar    1  UNL1        0.0254
     33 C         139.3427  139.1747  156.4714 C.ar    1  UNL1        0.0971
     34 N         138.3759  139.8422  157.4149 N.ar    1  UNL1       -0.2415
     35 C         138.5460  139.9505  158.9013 C.ar    1  UNL1        0.1100
     36 C         139.7588  139.3650  159.5620 C.ar    1  UNL1        0.0764
     37 CL        139.9289  139.4733  161.0483 Cl      1  UNL1       -0.0808
     38 C         140.8014  138.6714  158.7363 C.ar    1  UNL1        0.0331
     39 C         140.4961  138.6409  157.2680 C.ar    1  UNL1        0.0792
     40 H         143.8687  136.9616  158.7298 H       1  UNL1        0.2108
@<TRIPOS>BOND
     1    12    13    2
     2    13    14    1
     3    14    15    1
     4    15    16    1
     5    16    17   ar
     6    17    18   ar
     7    18    19   ar
     8    19    11    1
     9    11     9    1
    10     9     1    1
    11     1     2    1
    12     2     3    1
    13     3     4    1
    14     4    24    1
    15    24    25    1
    16    25    26    1
    17    25    27    1
    18    27    28    1
    19    28    29   ar
    20    29    30    2
    21    29    31   ar
    22    31    32   ar
    23    32    33   ar
    24    33    34   ar
    25    34    35   ar
    26    35    36   ar
    27    36    37    1
    28    36    38   ar
    29    38    39   ar
    30     4     5    1
    31     5     6    1
    32     4     7    1
    33     7     8    1
    34    19    20   ar
    35    20    21   ar
    36    21    22    1
    37    22    13   am
    38    21    16   ar
    39     6     1    1
    40     8     1    1
    41    38    25    1
    42    39    28   ar
    43    39    33   ar
    44     9    10    1
    45    26    40    1
    46    22    23    1
