@<TRIPOS>MOLECULE
*****
 44 50 0 0 0
SMALL
GASTEIGER

@<TRIPOS>ATOM
      1 C         141.0047  141.6012  159.8021 C.3     1  UNL1        0.1707
      2 N         141.2942  140.5160  158.8079 N.3     1  UNL1       -0.2797
      3 C         142.5304  139.6786  158.9505 C.3     1  UNL1        0.1167
      4 C         143.4771  139.9263  160.0874 C.3     1  UNL1        0.0511
      5 C         143.1876  141.0115  161.0816 C.2     1  UNL1       -0.0037
      6 C         141.9514  141.8490  160.9390 C.2     1  UNL1        0.0800
      7 N         141.9303  142.8396  162.0651 N.2     1  UNL1       -0.2519
      8 C         143.1534  142.6144  162.9037 C.2     1  UNL1        0.0627
      9 C         143.6600  143.2922  164.1422 C.3     1  UNL1        0.0717
     10 C         144.9436  142.8401  164.7729 C.2     1  UNL1       -0.0198
     11 C         145.7207  141.7102  164.1650 C.2     1  UNL1       -0.0042
     12 C         145.2141  141.0324  162.9265 C.2     1  UNL1        0.0006
     13 C         143.9305  141.4845  162.2958 C.2     1  UNL1        0.0111
     14 H         141.3446  140.9618  157.8918 H       1  UNL1        0.1246
     15 C         140.3016  142.7375  160.4838 C.ar    1  UNL1        0.2493
     16 N         139.2714  142.6142  161.5669 N.ar    1  UNL1       -0.1282
     17 N         138.8384  143.9971  161.9545 N.ar    1  UNL1       -0.1772
     18 C         139.6012  144.9751  161.1109 C.ar    1  UNL1        0.4392
     19 O         139.4808  146.4692  161.1665 O.2     1  UNL1       -0.2210
     20 O         140.5055  144.1966  160.2019 O.2     1  UNL1       -0.3896
     21 C         137.8213  144.3415  163.0018 C.3     1  UNL1        0.1752
     22 C         138.0344  143.9135  164.4236 C.2     1  UNL1        0.0752
     23 O         137.8941  142.4686  164.8010 O.co2   1  UNL1       -0.5471
     24 O         138.3879  144.9305  165.4680 O.co2   1  UNL1       -0.5471
     25 C         142.8200  138.5933  157.9563 C.ar    1  UNL1        0.1319
     26 N         142.3668  137.1666  158.0515 N.ar    1  UNL1       -0.2282
     27 C         142.8803  136.4358  156.8464 C.ar    1  UNL1        0.1171
     28 C         143.6508  137.4108  156.0064 C.ar    1  UNL1        0.0942
     29 N         143.6135  138.7442  156.6924 N.ar    1  UNL1       -0.3385
     30 H         144.0358  139.5730  156.3697 H       1  UNL1        0.1672
     31 C         142.6616  134.9846  156.5358 C.ar    1  UNL1        0.1006
     32 C         143.4871  133.9378  157.2234 C.ar    1  UNL1        0.0230
     33 C         143.2685  132.4867  156.9129 C.ar    1  UNL1        0.0328
     34 C         142.2243  132.0824  155.9148 C.ar    1  UNL1        0.1592
     35 F         142.0056  130.6312  155.6042 F       1  UNL1       -0.2025
     36 C         141.3988  133.1292  155.2272 C.ar    1  UNL1        0.1284
     37 N         141.6174  134.5803  155.5378 N.ar    1  UNL1       -0.2399
     38 N         138.3177  142.5445  157.1647 N.ar    1  UNL1       -0.2497
     39 C         139.6584  142.7572  157.8031 C.ar    1  UNL1        0.0944
     40 C         139.8138  141.7482  158.9020 C.ar    1  UNL1        0.0439
     41 C         138.5692  140.9119  158.9429 C.ar    1  UNL1        0.1194
     42 N         137.6446  141.4040  157.8691 N.ar    1  UNL1       -0.1679
     43 C         136.4222  142.9552  155.4361 C.3     1  UNL1        0.0284
     44 C         137.7499  143.3337  156.0224 C.3     1  UNL1        0.1276
@<TRIPOS>UNITY_ATOM_ATTR
23 1
charge -1
@<TRIPOS>BOND
     1    43    44    1
     2    44    38    1
     3    38    39   ar
     4    39    40   ar
     5     1    40    1
     6     1    15    1
     7    15    16   ar
     8    16    17   ar
     9    17    21    1
    10    21    22    1
    11    22    23   ar
    12    22    24   ar
    13    17    18   ar
    14    18    19    2
    15    18    20   ar
    16     1     2    1
    17     2     3    1
    18     3    25    1
    19    25    26   ar
    20    26    27   ar
    21    27    31    1
    22    31    32   ar
    23    32    33   ar
    24    33    34   ar
    25    34    35    1
    26    34    36   ar
    27    36    37   ar
    28    27    28   ar
    29    28    29   ar
    30     3     4    1
    31     4     5    1
    32     5     6    2
    33     6     7    1
    34     7     8    2
    35     8     9    1
    36     9    10    1
    37    10    11    2
    38    11    12    1
    39    12    13    2
    40    40    41   ar
    41    41    42   ar
    42    42    38   ar
    43     6     1    1
    44    13     8    1
    45    20    15   ar
    46    29    25   ar
    47    13     5    1
    48    37    31   ar
    49     2    14    1
    50    29    30    1
@<TRIPOS>MOLECULE
*****
 44 50 0 0 0
SMALL
GASTEIGER

@<TRIPOS>ATOM
      1 C         141.6262  142.1164  160.2810 C.3     1  UNL1        0.1707
      2 N         142.4507  141.9566  159.0382 N.3     1  UNL1       -0.2797
      3 C         143.7042  141.1334  159.0705 C.3     1  UNL1        0.1167
      4 C         144.1332  140.4700  160.3456 C.3     1  UNL1        0.0511
      5 C         143.3087  140.6297  161.5884 C.2     1  UNL1       -0.0037
      6 C         142.0552  141.4530  161.5561 C.2     1  UNL1        0.0800
      7 N         141.4507  141.4308  162.9287 N.2     1  UNL1       -0.2519
      8 C         142.3305  140.5938  163.8093 C.2     1  UNL1        0.0627
      9 C         142.2344  140.2186  165.2584 C.3     1  UNL1        0.0717
     10 C         143.2866  139.3483  165.8791 C.2     1  UNL1       -0.0198
     11 C         144.4350  138.8532  165.0507 C.2     1  UNL1       -0.0042
     12 C         144.5311  139.2284  163.6016 C.2     1  UNL1        0.0006
     13 C         143.4788  140.0988  162.9809 C.2     1  UNL1        0.0111
     14 H         142.7218  142.8943  158.7421 H       1  UNL1        0.1246
     15 C         140.5192  142.5601  161.1908 C.ar    1  UNL1        0.2493
     16 N         140.5213  143.7922  162.0461 N.ar    1  UNL1       -0.1282
     17 N         139.2190  143.8431  162.7889 N.ar    1  UNL1       -0.1772
     18 C         138.4122  142.6424  162.3926 C.ar    1  UNL1        0.4392
     19 O         137.0422  142.2955  162.8956 O.2     1  UNL1       -0.2210
     20 O         139.2157  141.8494  161.4048 O.2     1  UNL1       -0.3896
     21 C         138.7978  144.9078  163.7579 C.3     1  UNL1        0.1752
     22 C         138.9420  144.6788  165.2333 C.2     1  UNL1        0.0752
     23 O         139.8577  143.6039  165.7394 O.co2   1  UNL1       -0.5471
     24 O         138.1707  145.5246  166.2025 O.co2   1  UNL1       -0.5471
     25 C         144.5288  140.9736  157.8276 C.ar    1  UNL1        0.1319
     26 N         145.5548  141.9428  157.3197 N.ar    1  UNL1       -0.2282
     27 C         146.1322  141.3848  156.0527 C.ar    1  UNL1        0.1171
     28 C         145.4631  140.0708  155.7777 C.ar    1  UNL1        0.0942
     29 N         144.4721  139.8166  156.8746 N.ar    1  UNL1       -0.3385
     30 H         143.8872  139.0288  156.9550 H       1  UNL1        0.1672
     31 C         147.1926  142.0279  155.2089 C.ar    1  UNL1        0.1006
     32 C         146.8362  143.1578  154.2889 C.ar    1  UNL1        0.0230
     33 C         147.8966  143.8010  153.4452 C.ar    1  UNL1        0.0328
     34 C         149.3133  143.3142  153.5213 C.ar    1  UNL1        0.1592
     35 F         150.3737  143.9574  152.6775 F       1  UNL1       -0.2025
     36 C         149.6697  142.1843  154.4412 C.ar    1  UNL1        0.1284
     37 N         148.6094  141.5412  155.2850 N.ar    1  UNL1       -0.2399
     38 N         140.0391  144.7639  157.9279 N.ar    1  UNL1       -0.2497
     39 C         141.1084  144.3399  158.8907 C.ar    1  UNL1        0.0944
     40 C         140.8128  142.9339  159.3219 C.ar    1  UNL1        0.0439
     41 C         139.5609  142.4891  158.6256 C.ar    1  UNL1        0.1194
     42 N         139.0827  143.6201  157.7640 N.ar    1  UNL1       -0.1679
     43 C         140.6782  146.3392  155.9632 C.3     1  UNL1        0.0284
     44 C         139.9432  146.0977  157.2482 C.3     1  UNL1        0.1276
@<TRIPOS>UNITY_ATOM_ATTR
23 1
charge -1
@<TRIPOS>BOND
     1    43    44    1
     2    44    38    1
     3    38    39   ar
     4    39    40   ar
     5     1    40    1
     6     1    15    1
     7    15    16   ar
     8    16    17   ar
     9    17    21    1
    10    21    22    1
    11    22    23   ar
    12    22    24   ar
    13    17    18   ar
    14    18    19    2
    15    18    20   ar
    16     1     2    1
    17     2     3    1
    18     3    25    1
    19    25    26   ar
    20    26    27   ar
    21    27    31    1
    22    31    32   ar
    23    32    33   ar
    24    33    34   ar
    25    34    35    1
    26    34    36   ar
    27    36    37   ar
    28    27    28   ar
    29    28    29   ar
    30     3     4    1
    31     4     5    1
    32     5     6    2
    33     6     7    1
    34     7     8    2
    35     8     9    1
    36     9    10    1
    37    10    11    2
    38    11    12    1
    39    12    13    2
    40    40    41   ar
    41    41    42   ar
    42    42    38   ar
    43     6     1    1
    44    13     8    1
    45    20    15   ar
    46    29    25   ar
    47    13     5    1
    48    37    31   ar
    49     2    14    1
    50    29    30    1
@<TRIPOS>MOLECULE
*****
 44 50 0 0 0
SMALL
GASTEIGER

@<TRIPOS>ATOM
      1 C         141.9579  141.1780  159.7359 C.3     1  UNL1        0.1707
      2 N         141.9749  139.8086  159.1241 N.3     1  UNL1       -0.2797
      3 C         141.5132  139.6129  157.7104 C.3     1  UNL1        0.1167
      4 C         141.0344  140.7867  156.9085 C.3     1  UNL1        0.0511
      5 C         141.0174  142.1562  157.5203 C.2     1  UNL1       -0.0037
      6 C         141.4792  142.3518  158.9340 C.2     1  UNL1        0.0800
      7 N         141.3496  143.8088  159.2664 N.2     1  UNL1       -0.2519
      8 C         140.8079  144.5135  158.0581 C.2     1  UNL1        0.0627
      9 C         140.4750  145.9534  157.8012 C.3     1  UNL1        0.0717
     10 C         139.9368  146.3718  156.4651 C.2     1  UNL1       -0.0198
     11 C         139.7315  145.3504  155.3859 C.2     1  UNL1       -0.0042
     12 C         140.0644  143.9106  155.6429 C.2     1  UNL1        0.0006
     13 C         140.6026  143.4921  156.9790 C.2     1  UNL1        0.0111
     14 H         141.3865  139.2167  159.7106 H       1  UNL1        0.1246
     15 C         142.1276  142.2719  160.7483 C.ar    1  UNL1        0.2493
     16 N         141.0664  142.7894  161.6734 N.ar    1  UNL1       -0.1282
     17 N         141.6714  143.8776  162.5101 N.ar    1  UNL1       -0.1772
     18 C         143.1064  144.0325  162.1020 C.ar    1  UNL1        0.4392
     19 O         144.0873  145.0084  162.6811 O.2     1  UNL1       -0.2210
     20 O         143.3884  143.0401  161.0131 O.2     1  UNL1       -0.3896
     21 C         140.9652  144.6713  163.5689 C.3     1  UNL1        0.1752
     22 C         139.5027  144.9742  163.4289 C.2     1  UNL1        0.0752
     23 O         138.9634  145.4814  162.1243 O.co2   1  UNL1       -0.5471
     24 O         138.5797  144.7699  164.5934 O.co2   1  UNL1       -0.5471
     25 C         141.5301  138.2434  157.0986 C.ar    1  UNL1        0.1319
     26 N         142.5548  137.1775  157.3514 N.ar    1  UNL1       -0.2282
     27 C         142.1834  135.9748  156.5357 C.ar    1  UNL1        0.1171
     28 C         140.9292  136.2973  155.7788 C.ar    1  UNL1        0.0942
     29 N         140.5255  137.6994  156.1267 N.ar    1  UNL1       -0.3385
     30 H         139.7391  138.1785  155.7783 H       1  UNL1        0.1672
     31 C         142.9345  134.6772  156.4856 C.ar    1  UNL1        0.1006
     32 C         142.8976  133.8367  155.2438 C.ar    1  UNL1        0.0230
     33 C         143.6485  132.5392  155.1937 C.ar    1  UNL1        0.0328
     34 C         144.4364  132.0823  156.3855 C.ar    1  UNL1        0.1592
     35 F         145.1874  130.7847  156.3354 F       1  UNL1       -0.2025
     36 C         144.4733  132.9228  157.6273 C.ar    1  UNL1        0.1284
     37 N         143.7223  134.2202  157.6774 N.ar    1  UNL1       -0.2399
     38 N         142.6242  139.0484  162.9117 N.ar    1  UNL1       -0.2497
     39 C         141.6808  139.7329  161.9674 C.ar    1  UNL1        0.0944
     40 C         142.4955  140.3841  160.8894 C.ar    1  UNL1        0.0439
     41 C         143.9424  140.1021  161.1674 C.ar    1  UNL1        0.1194
     42 N         144.0218  139.2765  162.4173 N.ar    1  UNL1       -0.1679
     43 C         141.1373  137.2551  164.0622 C.3     1  UNL1        0.0284
     44 C         142.2376  138.2719  164.1356 C.3     1  UNL1        0.1276
@<TRIPOS>UNITY_ATOM_ATTR
23 1
charge -1
@<TRIPOS>BOND
     1    43    44    1
     2    44    38    1
     3    38    39   ar
     4    39    40   ar
     5     1    40    1
     6     1    15    1
     7    15    16   ar
     8    16    17   ar
     9    17    21    1
    10    21    22    1
    11    22    23   ar
    12    22    24   ar
    13    17    18   ar
    14    18    19    2
    15    18    20   ar
    16     1     2    1
    17     2     3    1
    18     3    25    1
    19    25    26   ar
    20    26    27   ar
    21    27    31    1
    22    31    32   ar
    23    32    33   ar
    24    33    34   ar
    25    34    35    1
    26    34    36   ar
    27    36    37   ar
    28    27    28   ar
    29    28    29   ar
    30     3     4    1
    31     4     5    1
    32     5     6    2
    33     6     7    1
    34     7     8    2
    35     8     9    1
    36     9    10    1
    37    10    11    2
    38    11    12    1
    39    12    13    2
    40    40    41   ar
    41    41    42   ar
    42    42    38   ar
    43     6     1    1
    44    13     8    1
    45    20    15   ar
    46    29    25   ar
    47    13     5    1
    48    37    31   ar
    49     2    14    1
    50    29    30    1
@<TRIPOS>MOLECULE
*****
 44 50 0 0 0
SMALL
GASTEIGER

@<TRIPOS>ATOM
      1 C         142.2611  140.8571  160.5008 C.3     1  UNL1        0.1707
      2 N         142.5118  139.8805  159.3903 N.3     1  UNL1       -0.2797
      3 C         141.9951  138.4762  159.4957 C.3     1  UNL1        0.1167
      4 C         141.2277  138.0487  160.7116 C.3     1  UNL1        0.0511
      5 C         140.9770  139.0253  161.8221 C.2     1  UNL1       -0.0037
      6 C         141.4938  140.4296  161.7167 C.2     1  UNL1        0.0800
      7 N         141.0944  141.1650  162.9616 N.2     1  UNL1       -0.2519
      8 C         140.3309  140.2153  163.8363 C.2     1  UNL1        0.0627
      9 C         139.6924  140.3838  165.1831 C.3     1  UNL1        0.0717
     10 C         138.9814  139.2299  165.8256 C.2     1  UNL1       -0.0198
     11 C         138.9088  137.9075  165.1214 C.2     1  UNL1       -0.0042
     12 C         139.5473  137.7390  163.7746 C.2     1  UNL1        0.0006
     13 C         140.2584  138.8929  163.1321 C.2     1  UNL1        0.0111
     14 H         143.5235  139.8144  159.2791 H       1  UNL1        0.1246
     15 C         142.2791  142.1367  161.2836 C.ar    1  UNL1        0.2493
     16 N         141.1389  143.1012  161.4226 N.ar    1  UNL1       -0.1282
     17 N         141.5957  144.2369  162.2897 N.ar    1  UNL1       -0.1772
     18 C         143.0182  143.9741  162.6864 C.ar    1  UNL1        0.4392
     19 O         143.8689  144.8548  163.5529 O.2     1  UNL1       -0.2210
     20 O         143.4406  142.6760  162.0646 O.2     1  UNL1       -0.3896
     21 C         140.7742  145.4264  162.6897 C.3     1  UNL1        0.1752
     22 C         139.4195  145.6408  162.0822 C.2     1  UNL1        0.0752
     23 O         139.2462  146.6260  160.9645 O.co2   1  UNL1       -0.5471
     24 O         138.2382  144.8701  162.5925 O.co2   1  UNL1       -0.5471
     25 C         142.2457  137.4995  158.3851 C.ar    1  UNL1        0.1319
     26 N         142.9188  136.1657  158.5193 N.ar    1  UNL1       -0.2282
     27 C         142.9563  135.5270  157.1626 C.ar    1  UNL1        0.1171
     28 C         142.3065  136.4660  156.1900 C.ar    1  UNL1        0.0942
     29 N         141.8673  137.6851  156.9456 N.ar    1  UNL1       -0.3385
     30 H         141.4108  138.4693  156.5637 H       1  UNL1        0.1672
     31 C         143.5411  134.1848  156.8359 C.ar    1  UNL1        0.1006
     32 C         143.2562  133.5454  155.5093 C.ar    1  UNL1        0.0230
     33 C         143.8409  132.2033  155.1825 C.ar    1  UNL1        0.0328
     34 C         144.7106  131.5006  156.1824 C.ar    1  UNL1        0.1592
     35 F         145.2954  130.1584  155.8557 F       1  UNL1       -0.2025
     36 C         144.9956  132.1400  157.5091 C.ar    1  UNL1        0.1284
     37 N         144.4108  133.4821  157.8358 N.ar    1  UNL1       -0.2399
     38 N         144.8378  142.6547  158.2216 N.ar    1  UNL1       -0.2497
     39 C         144.4808  141.5680  159.1921 C.ar    1  UNL1        0.0944
     40 C         143.0347  141.7291  159.5568 C.ar    1  UNL1        0.0439
     41 C         142.4981  142.9152  158.8117 C.ar    1  UNL1        0.1194
     42 N         143.6125  143.4873  157.9865 N.ar    1  UNL1       -0.1679
     43 C         146.6022  142.0479  156.4137 C.3     1  UNL1        0.0284
     44 C         146.1839  142.8707  157.5960 C.3     1  UNL1        0.1276
@<TRIPOS>UNITY_ATOM_ATTR
23 1
charge -1
@<TRIPOS>BOND
     1    43    44    1
     2    44    38    1
     3    38    39   ar
     4    39    40   ar
     5     1    40    1
     6     1    15    1
     7    15    16   ar
     8    16    17   ar
     9    17    21    1
    10    21    22    1
    11    22    23   ar
    12    22    24   ar
    13    17    18   ar
    14    18    19    2
    15    18    20   ar
    16     1     2    1
    17     2     3    1
    18     3    25    1
    19    25    26   ar
    20    26    27   ar
    21    27    31    1
    22    31    32   ar
    23    32    33   ar
    24    33    34   ar
    25    34    35    1
    26    34    36   ar
    27    36    37   ar
    28    27    28   ar
    29    28    29   ar
    30     3     4    1
    31     4     5    1
    32     5     6    2
    33     6     7    1
    34     7     8    2
    35     8     9    1
    36     9    10    1
    37    10    11    2
    38    11    12    1
    39    12    13    2
    40    40    41   ar
    41    41    42   ar
    42    42    38   ar
    43     6     1    1
    44    13     8    1
    45    20    15   ar
    46    29    25   ar
    47    13     5    1
    48    37    31   ar
    49     2    14    1
    50    29    30    1
@<TRIPOS>MOLECULE
*****
 44 50 0 0 0
SMALL
GASTEIGER

@<TRIPOS>ATOM
      1 C         142.1253  140.5770  160.1115 C.3     1  UNL1        0.1707
      2 N         142.5363  139.3307  159.3850 N.3     1  UNL1       -0.2797
      3 C         142.6438  139.3357  157.8889 C.3     1  UNL1        0.1167
      4 C         142.3402  140.5869  157.1193 C.3     1  UNL1        0.0511
      5 C         141.9292  141.8332  157.8458 C.2     1  UNL1       -0.0037
      6 C         141.8217  141.8282  159.3419 C.2     1  UNL1        0.0800
      7 N         141.3961  143.1980  159.7805 N.2     1  UNL1       -0.2519
      8 C         141.2405  144.0496  158.5555 C.2     1  UNL1        0.0627
      9 C         140.8414  145.4841  158.3744 C.3     1  UNL1        0.0717
     10 C         140.7718  146.0751  156.9975 C.2     1  UNL1       -0.0198
     11 C         141.1013  145.2316  155.8018 C.2     1  UNL1       -0.0042
     12 C         141.5004  143.7971  155.9829 C.2     1  UNL1        0.0006
     13 C         141.5700  143.2061  157.3598 C.2     1  UNL1        0.0111
     14 H         141.8570  138.6100  159.6290 H       1  UNL1        0.1246
     15 C         141.7777  141.5001  161.2416 C.ar    1  UNL1        0.2493
     16 N         140.3976  141.7824  161.7568 N.ar    1  UNL1       -0.1282
     17 N         140.5163  142.7598  162.8886 N.ar    1  UNL1       -0.1772
     18 C         141.9697  143.0815  163.0727 C.ar    1  UNL1        0.4392
     19 O         142.5429  144.0174  164.0952 O.2     1  UNL1       -0.2210
     20 O         142.7494  142.3029  162.0548 O.2     1  UNL1       -0.3896
     21 C         139.3808  143.3175  163.6945 C.3     1  UNL1        0.1752
     22 C         138.0248  143.4731  163.0723 C.2     1  UNL1        0.0752
     23 O         137.5776  144.8155  162.5744 O.co2   1  UNL1       -0.5471
     24 O         137.1160  142.2862  162.9479 O.co2   1  UNL1       -0.5471
     25 C         143.0549  138.0894  157.1623 C.ar    1  UNL1        0.1319
     26 N         142.5908  136.6964  157.4690 N.ar    1  UNL1       -0.2282
     27 C         143.2513  135.7634  156.4978 C.ar    1  UNL1        0.1171
     28 C         144.1235  136.5798  155.5908 C.ar    1  UNL1        0.0942
     29 N         144.0022  138.0174  156.0015 N.ar    1  UNL1       -0.3385
     30 H         144.4633  138.7798  155.5827 H       1  UNL1        0.1672
     31 C         143.0711  134.2752  156.4431 C.ar    1  UNL1        0.1006
     32 C         141.9728  133.6828  155.6108 C.ar    1  UNL1        0.0230
     33 C         141.7926  132.1947  155.5561 C.ar    1  UNL1        0.0328
     34 C         142.7107  131.2990  156.3338 C.ar    1  UNL1        0.1592
     35 F         142.5305  129.8108  156.2791 F       1  UNL1       -0.2025
     36 C         143.8090  131.8914  157.1661 C.ar    1  UNL1        0.1284
     37 N         143.9892  133.3795  157.2208 N.ar    1  UNL1       -0.2399
     38 N         141.8502  138.0897  163.0785 N.ar    1  UNL1       -0.2497
     39 C         141.2192  138.8978  161.9835 C.ar    1  UNL1        0.0944
     40 C         142.3081  139.6464  161.2736 C.ar    1  UNL1        0.0439
     41 C         143.6120  139.3010  161.9299 C.ar    1  UNL1        0.1194
     42 N         143.3290  138.3389  163.0454 N.ar    1  UNL1       -0.1679
     43 C         139.8021  137.6048  164.6017 C.3     1  UNL1        0.0284
     44 C         141.1290  137.1903  164.0382 C.3     1  UNL1        0.1276
@<TRIPOS>UNITY_ATOM_ATTR
23 1
charge -1
@<TRIPOS>BOND
     1    43    44    1
     2    44    38    1
     3    38    39   ar
     4    39    40   ar
     5     1    40    1
     6     1    15    1
     7    15    16   ar
     8    16    17   ar
     9    17    21    1
    10    21    22    1
    11    22    23   ar
    12    22    24   ar
    13    17    18   ar
    14    18    19    2
    15    18    20   ar
    16     1     2    1
    17     2     3    1
    18     3    25    1
    19    25    26   ar
    20    26    27   ar
    21    27    31    1
    22    31    32   ar
    23    32    33   ar
    24    33    34   ar
    25    34    35    1
    26    34    36   ar
    27    36    37   ar
    28    27    28   ar
    29    28    29   ar
    30     3     4    1
    31     4     5    1
    32     5     6    2
    33     6     7    1
    34     7     8    2
    35     8     9    1
    36     9    10    1
    37    10    11    2
    38    11    12    1
    39    12    13    2
    40    40    41   ar
    41    41    42   ar
    42    42    38   ar
    43     6     1    1
    44    13     8    1
    45    20    15   ar
    46    29    25   ar
    47    13     5    1
    48    37    31   ar
    49     2    14    1
    50    29    30    1
@<TRIPOS>MOLECULE
*****
 44 50 0 0 0
SMALL
GASTEIGER

@<TRIPOS>ATOM
      1 C         140.0139  141.3761  159.6207 C.3     1  UNL1        0.1707
      2 N         140.0221  140.5128  158.3941 N.3     1  UNL1       -0.2797
      3 C         139.7849  139.0366  158.5144 C.3     1  UNL1        0.1167
      4 C         139.5395  138.4237  159.8614 C.3     1  UNL1        0.0511
      5 C         139.5312  139.2870  161.0879 C.2     1  UNL1       -0.0037
      6 C         139.7684  140.7632  160.9676 C.2     1  UNL1        0.0800
      7 N         139.7024  141.3569  162.3436 N.2     1  UNL1       -0.2519
      8 C         139.4244  140.2476  163.3142 C.2     1  UNL1        0.0627
      9 C         139.2540  140.2372  164.8045 C.3     1  UNL1        0.0717
     10 C         138.9777  138.9474  165.5186 C.2     1  UNL1       -0.0198
     11 C         138.8719  137.6681  164.7426 C.2     1  UNL1       -0.0042
     12 C         139.0424  137.6786  163.2524 C.2     1  UNL1        0.0006
     13 C         139.3186  138.9683  162.5382 C.2     1  UNL1        0.0111
     14 H         140.9368  140.6295  157.9581 H       1  UNL1        0.1246
     15 C         140.1014  142.6000  160.4837 C.ar    1  UNL1        0.2493
     16 N         141.3069  143.0515  161.2535 N.ar    1  UNL1       -0.1282
     17 N         140.9493  144.3177  161.9740 N.ar    1  UNL1       -0.1772
     18 C         139.5228  144.6486  161.6493 C.ar    1  UNL1        0.4392
     19 O         138.7550  145.8332  162.1566 O.2     1  UNL1       -0.2210
     20 O         138.9987  143.5870  160.7282 O.2     1  UNL1       -0.3896
     21 C         141.8586  145.1132  162.8629 C.3     1  UNL1        0.1752
     22 C         143.1628  144.5282  163.3179 C.2     1  UNL1        0.0752
     23 O         143.2286  143.7462  164.5963 O.co2   1  UNL1       -0.5471
     24 O         144.4010  144.7251  162.4946 O.co2   1  UNL1       -0.5471
     25 C         139.7931  138.1732  157.2878 C.ar    1  UNL1        0.1319
     26 N         140.7589  137.0628  156.9978 N.ar    1  UNL1       -0.2282
     27 C         140.3997  136.4719  155.6666 C.ar    1  UNL1        0.1171
     28 C         139.2120  137.2172  155.1340 C.ar    1  UNL1        0.0942
     29 N         138.8370  138.2687  156.1360 N.ar    1  UNL1       -0.3385
     30 H         138.0939  138.9090  156.0523 H       1  UNL1        0.1672
     31 C         141.1046  135.3353  154.9874 C.ar    1  UNL1        0.1006
     32 C         141.0821  135.2255  153.4916 C.ar    1  UNL1        0.0230
     33 C         141.7870  134.0889  152.8123 C.ar    1  UNL1        0.0328
     34 C         142.5143  133.0622  153.6289 C.ar    1  UNL1        0.1592
     35 F         143.2192  131.9256  152.9496 F       1  UNL1       -0.2025
     36 C         142.5368  133.1720  155.1247 C.ar    1  UNL1        0.1284
     37 N         141.8319  134.3086  155.8039 N.ar    1  UNL1       -0.2399
     38 N         139.9796  144.1522  156.9083 N.ar    1  UNL1       -0.2497
     39 C         139.2631  143.2522  157.8710 C.ar    1  UNL1        0.0944
     40 C         140.2897  142.4140  158.5736 C.ar    1  UNL1        0.0439
     41 C         141.6406  142.7960  158.0451 C.ar    1  UNL1        0.1194
     42 N         141.4489  143.8703  157.0159 N.ar    1  UNL1       -0.1679
     43 C         139.4964  146.6242  156.2711 C.3     1  UNL1        0.0284
     44 C         139.3392  145.1577  155.9978 C.3     1  UNL1        0.1276
@<TRIPOS>UNITY_ATOM_ATTR
23 1
charge -1
@<TRIPOS>BOND
     1    43    44    1
     2    44    38    1
     3    38    39   ar
     4    39    40   ar
     5     1    40    1
     6     1    15    1
     7    15    16   ar
     8    16    17   ar
     9    17    21    1
    10    21    22    1
    11    22    23   ar
    12    22    24   ar
    13    17    18   ar
    14    18    19    2
    15    18    20   ar
    16     1     2    1
    17     2     3    1
    18     3    25    1
    19    25    26   ar
    20    26    27   ar
    21    27    31    1
    22    31    32   ar
    23    32    33   ar
    24    33    34   ar
    25    34    35    1
    26    34    36   ar
    27    36    37   ar
    28    27    28   ar
    29    28    29   ar
    30     3     4    1
    31     4     5    1
    32     5     6    2
    33     6     7    1
    34     7     8    2
    35     8     9    1
    36     9    10    1
    37    10    11    2
    38    11    12    1
    39    12    13    2
    40    40    41   ar
    41    41    42   ar
    42    42    38   ar
    43     6     1    1
    44    13     8    1
    45    20    15   ar
    46    29    25   ar
    47    13     5    1
    48    37    31   ar
    49     2    14    1
    50    29    30    1
@<TRIPOS>MOLECULE
*****
 44 50 0 0 0
SMALL
GASTEIGER

@<TRIPOS>ATOM
      1 C         140.5031  142.0911  159.3879 C.3     1  UNL1        0.1707
      2 N         139.1977  141.8166  158.7020 N.3     1  UNL1       -0.2797
      3 C         139.1736  141.4923  157.2377 C.3     1  UNL1        0.1167
      4 C         140.4548  141.4426  156.4593 C.3     1  UNL1        0.0511
      5 C         141.7602  141.7172  157.1452 C.2     1  UNL1       -0.0037
      6 C         141.7843  142.0414  158.6095 C.2     1  UNL1        0.0800
      7 N         143.2121  142.2651  159.0112 N.2     1  UNL1       -0.2519
      8 C         144.0704  142.0791  157.7952 C.2     1  UNL1        0.0627
      9 C         145.5531  142.1743  157.5890 C.3     1  UNL1        0.0717
     10 C         146.1384  141.9309  156.2296 C.2     1  UNL1       -0.0198
     11 C         145.2411  141.5923  155.0763 C.2     1  UNL1       -0.0042
     12 C         143.7584  141.4970  155.2825 C.2     1  UNL1        0.0006
     13 C         143.1731  141.7405  156.6419 C.2     1  UNL1        0.0111
     14 H         138.6179  142.6460  158.8295 H       1  UNL1        0.1246
     15 C         141.4816  142.4230  160.4753 C.ar    1  UNL1        0.2493
     16 N         141.9387  141.4967  161.5629 N.ar    1  UNL1       -0.1282
     17 N         142.9144  142.2407  162.4258 N.ar    1  UNL1       -0.1772
     18 C         143.0603  143.6268  161.8714 C.ar    1  UNL1        0.4392
     19 O         143.9377  144.7101  162.4253 O.2     1  UNL1       -0.2210
     20 O         142.1747  143.7395  160.6659 O.2     1  UNL1       -0.3896
     21 C         143.6203  141.6945  163.6313 C.3     1  UNL1        0.1752
     22 C         144.9544  141.0256  163.4802 C.2     1  UNL1        0.0752
     23 O         145.1594  139.6346  164.0027 O.co2   1  UNL1       -0.5471
     24 O         146.0835  141.7478  162.8067 O.co2   1  UNL1       -0.5471
     25 C         137.8681  141.2178  156.5517 C.ar    1  UNL1        0.1319
     26 N         136.5886  140.8120  157.2211 N.ar    1  UNL1       -0.2282
     27 C         135.5427  140.6442  156.1591 C.ar    1  UNL1        0.1171
     28 C         136.1759  140.9463  154.8332 C.ar    1  UNL1        0.0942
     29 N         137.6130  141.3008  155.0759 N.ar    1  UNL1       -0.3385
     30 H         138.2730  141.5450  154.3874 H       1  UNL1        0.1672
     31 C         134.1144  140.2445  156.3835 C.ar    1  UNL1        0.1006
     32 C         133.0060  141.0426  155.7635 C.ar    1  UNL1        0.0230
     33 C         131.5778  140.6430  155.9879 C.ar    1  UNL1        0.0328
     34 C         131.2580  139.4452  156.8322 C.ar    1  UNL1        0.1592
     35 F         129.8297  139.0455  157.0567 F       1  UNL1       -0.2025
     36 C         132.3664  138.6470  157.4522 C.ar    1  UNL1        0.1284
     37 N         133.7946  139.0467  157.2278 N.ar    1  UNL1       -0.2399
     38 N         138.2553  143.2461  162.3339 N.ar    1  UNL1       -0.2497
     39 C         139.2387  143.5444  161.2412 C.ar    1  UNL1        0.0944
     40 C         139.5617  142.2561  160.5440 C.ar    1  UNL1        0.0439
     41 C         138.7779  141.1617  161.2058 C.ar    1  UNL1        0.1194
     42 N         137.9705  141.7736  162.3121 N.ar    1  UNL1       -0.1679
     43 C         138.1097  144.2800  164.7130 C.3     1  UNL1        0.0284
     44 C         137.6611  144.2451  163.2821 C.3     1  UNL1        0.1276
@<TRIPOS>UNITY_ATOM_ATTR
23 1
charge -1
@<TRIPOS>BOND
     1    43    44    1
     2    44    38    1
     3    38    39   ar
     4    39    40   ar
     5     1    40    1
     6     1    15    1
     7    15    16   ar
     8    16    17   ar
     9    17    21    1
    10    21    22    1
    11    22    23   ar
    12    22    24   ar
    13    17    18   ar
    14    18    19    2
    15    18    20   ar
    16     1     2    1
    17     2     3    1
    18     3    25    1
    19    25    26   ar
    20    26    27   ar
    21    27    31    1
    22    31    32   ar
    23    32    33   ar
    24    33    34   ar
    25    34    35    1
    26    34    36   ar
    27    36    37   ar
    28    27    28   ar
    29    28    29   ar
    30     3     4    1
    31     4     5    1
    32     5     6    2
    33     6     7    1
    34     7     8    2
    35     8     9    1
    36     9    10    1
    37    10    11    2
    38    11    12    1
    39    12    13    2
    40    40    41   ar
    41    41    42   ar
    42    42    38   ar
    43     6     1    1
    44    13     8    1
    45    20    15   ar
    46    29    25   ar
    47    13     5    1
    48    37    31   ar
    49     2    14    1
    50    29    30    1
@<TRIPOS>MOLECULE
*****
 44 50 0 0 0
SMALL
GASTEIGER

@<TRIPOS>ATOM
      1 C         141.1034  140.2740  159.6258 C.3     1  UNL1        0.1707
      2 N         141.6656  139.0298  159.0046 N.3     1  UNL1       -0.2797
      3 C         142.3272  139.0959  157.6600 C.3     1  UNL1        0.1167
      4 C         142.4264  140.4062  156.9365 C.3     1  UNL1        0.0511
      5 C         141.8641  141.6503  157.5577 C.2     1  UNL1       -0.0037
      6 C         141.2026  141.5842  158.9023 C.2     1  UNL1        0.0800
      7 N         140.7439  142.9664  159.2616 N.2     1  UNL1       -0.2519
      8 C         141.1219  143.8868  158.1391 C.2     1  UNL1        0.0627
      9 C         140.9251  145.3604  157.9398 C.3     1  UNL1        0.0717
     10 C         141.4207  146.0206  156.6874 C.2     1  UNL1       -0.0198
     11 C         142.1131  145.2071  155.6343 C.2     1  UNL1       -0.0042
     12 C         142.3098  143.7336  155.8336 C.2     1  UNL1        0.0006
     13 C         141.8142  143.0734  157.0860 C.2     1  UNL1        0.0111
     14 H         140.8941  138.3679  158.9210 H       1  UNL1        0.1246
     15 C         140.4247  141.1714  160.6179 C.ar    1  UNL1        0.2493
     16 N         141.1080  142.0584  161.6159 N.ar    1  UNL1       -0.1282
     17 N         140.0491  142.7746  162.4009 N.ar    1  UNL1       -0.1772
     18 C         138.7115  142.3301  161.8879 C.ar    1  UNL1        0.4392
     19 O         137.3762  142.7948  162.3889 O.2     1  UNL1       -0.2210
     20 O         138.9437  141.3392  160.7859 O.2     1  UNL1       -0.3896
     21 C         140.2864  143.7618  163.5049 C.3     1  UNL1        0.1752
     22 C         140.9339  145.0813  163.2049 C.2     1  UNL1        0.0752
     23 O         140.3254  146.0014  162.1885 O.co2   1  UNL1       -0.5471
     24 O         142.1898  145.4804  163.9213 O.co2   1  UNL1       -0.5471
     25 C         142.8895  137.8517  157.0388 C.ar    1  UNL1        0.1319
     26 N         142.5123  136.4430  157.3899 N.ar    1  UNL1       -0.2282
     27 C         143.3174  135.5185  156.5256 C.ar    1  UNL1        0.1171
     28 C         144.1921  136.3558  155.6403 C.ar    1  UNL1        0.0942
     29 N         143.9277  137.7978  155.9575 N.ar    1  UNL1       -0.3385
     30 H         144.3597  138.5728  155.5309 H       1  UNL1        0.1672
     31 C         143.2581  134.0197  156.5434 C.ar    1  UNL1        0.1006
     32 C         142.1687  133.3034  155.8017 C.ar    1  UNL1        0.0230
     33 C         142.1093  131.8047  155.8195 C.ar    1  UNL1        0.0328
     34 C         143.1394  131.0223  156.5790 C.ar    1  UNL1        0.1592
     35 F         143.0801  129.5236  156.5968 F       1  UNL1       -0.2025
     36 C         144.2288  131.7387  157.3207 C.ar    1  UNL1        0.1284
     37 N         144.2881  133.2374  157.3029 N.ar    1  UNL1       -0.2399
     38 N         140.9002  137.8922  162.6838 N.ar    1  UNL1       -0.2497
     39 C         141.6188  138.9369  161.8822 C.ar    1  UNL1        0.0944
     40 C         140.7685  139.2754  160.6938 C.ar    1  UNL1        0.0439
     41 C         139.5243  138.4401  160.7609 C.ar    1  UNL1        0.1194
     42 N         139.6058  137.5852  161.9908 N.ar    1  UNL1       -0.1679
     43 C         142.0320  138.1142  165.0118 C.3     1  UNL1        0.0284
     44 C         141.3901  137.2648  163.9552 C.3     1  UNL1        0.1276
@<TRIPOS>UNITY_ATOM_ATTR
23 1
charge -1
@<TRIPOS>BOND
     1    43    44    1
     2    44    38    1
     3    38    39   ar
     4    39    40   ar
     5     1    40    1
     6     1    15    1
     7    15    16   ar
     8    16    17   ar
     9    17    21    1
    10    21    22    1
    11    22    23   ar
    12    22    24   ar
    13    17    18   ar
    14    18    19    2
    15    18    20   ar
    16     1     2    1
    17     2     3    1
    18     3    25    1
    19    25    26   ar
    20    26    27   ar
    21    27    31    1
    22    31    32   ar
    23    32    33   ar
    24    33    34   ar
    25    34    35    1
    26    34    36   ar
    27    36    37   ar
    28    27    28   ar
    29    28    29   ar
    30     3     4    1
    31     4     5    1
    32     5     6    2
    33     6     7    1
    34     7     8    2
    35     8     9    1
    36     9    10    1
    37    10    11    2
    38    11    12    1
    39    12    13    2
    40    40    41   ar
    41    41    42   ar
    42    42    38   ar
    43     6     1    1
    44    13     8    1
    45    20    15   ar
    46    29    25   ar
    47    13     5    1
    48    37    31   ar
    49     2    14    1
    50    29    30    1
@<TRIPOS>MOLECULE
*****
 44 50 0 0 0
SMALL
GASTEIGER

@<TRIPOS>ATOM
      1 C         142.2675  140.8895  160.7004 C.3     1  UNL1        0.1707
      2 N         142.4746  139.9599  159.5416 N.3     1  UNL1       -0.2797
      3 C         141.9075  138.5718  159.5829 C.3     1  UNL1        0.1167
      4 C         141.1333  138.1134  160.7832 C.3     1  UNL1        0.0511
      5 C         140.9263  139.0429  161.9420 C.2     1  UNL1       -0.0037
      6 C         141.4933  140.4310  161.9006 C.2     1  UNL1        0.0800
      7 N         141.1298  141.1186  163.1832 N.2     1  UNL1       -0.2519
      8 C         140.3380  140.1555  164.0173 C.2     1  UNL1        0.0627
      9 C         139.7154  140.2809  165.3761 C.3     1  UNL1        0.0717
     10 C         138.9669  139.1235  165.9678 C.2     1  UNL1       -0.0198
     11 C         138.8412  137.8407  165.2007 C.2     1  UNL1       -0.0042
     12 C         139.4638  137.7152  163.8419 C.2     1  UNL1        0.0006
     13 C         140.2122  138.8727  163.2501 C.2     1  UNL1        0.0111
     14 H         143.4824  139.8627  159.4185 H       1  UNL1        0.1246
     15 C         142.3377  142.1276  161.5443 C.ar    1  UNL1        0.2493
     16 N         143.4466  142.4905  162.4868 N.ar    1  UNL1       -0.1282
     17 N         143.1055  143.8075  163.1188 N.ar    1  UNL1       -0.1772
     18 C         141.7857  144.2584  162.5668 C.ar    1  UNL1        0.4392
     19 O         141.0667  145.5252  162.9250 O.2     1  UNL1       -0.2210
     20 O         141.3112  143.2202  161.5937 O.2     1  UNL1       -0.3896
     21 C         143.9380  144.5440  164.1259 C.3     1  UNL1        0.1752
     22 C         144.3489  143.8658  165.3993 C.2     1  UNL1        0.0752
     23 O         145.4474  144.4481  166.2384 O.co2   1  UNL1       -0.5471
     24 O         143.6614  142.6054  165.8333 O.co2   1  UNL1       -0.5471
     25 C         142.1146  137.6422  158.4240 C.ar    1  UNL1        0.1319
     26 N         142.7903  136.3041  158.4771 N.ar    1  UNL1       -0.2282
     27 C         142.7756  135.7223  157.0945 C.ar    1  UNL1        0.1171
     28 C         142.0908  136.7009  156.1871 C.ar    1  UNL1        0.0942
     29 N         141.6823  137.8874  157.0088 N.ar    1  UNL1       -0.3385
     30 H         141.2128  138.6868  156.6774 H       1  UNL1        0.1672
     31 C         143.3457  134.3950  156.6904 C.ar    1  UNL1        0.1006
     32 C         143.0122  133.8126  155.3489 C.ar    1  UNL1        0.0230
     33 C         143.5822  132.4853  154.9448 C.ar    1  UNL1        0.0328
     34 C         144.4858  131.7405  155.8821 C.ar    1  UNL1        0.1592
     35 F         145.0559  130.4131  155.4780 F       1  UNL1       -0.2025
     36 C         144.8193  132.3228  157.2236 C.ar    1  UNL1        0.1284
     37 N         144.2493  133.6501  157.6277 N.ar    1  UNL1       -0.2399
     38 N         144.8817  142.6826  158.4608 N.ar    1  UNL1       -0.2497
     39 C         144.4850  141.5516  159.3628 C.ar    1  UNL1        0.0944
     40 C         143.0660  141.7779  159.7933 C.ar    1  UNL1        0.0439
     41 C         142.5858  143.0488  159.1574 C.ar    1  UNL1        0.1194
     42 N         143.7079  143.6079  158.3339 N.ar    1  UNL1       -0.1679
     43 C         146.5398  142.1008  156.5471 C.3     1  UNL1        0.0284
     44 C         146.2176  142.8576  157.8015 C.3     1  UNL1        0.1276
@<TRIPOS>UNITY_ATOM_ATTR
23 1
charge -1
@<TRIPOS>BOND
     1    43    44    1
     2    44    38    1
     3    38    39   ar
     4    39    40   ar
     5     1    40    1
     6     1    15    1
     7    15    16   ar
     8    16    17   ar
     9    17    21    1
    10    21    22    1
    11    22    23   ar
    12    22    24   ar
    13    17    18   ar
    14    18    19    2
    15    18    20   ar
    16     1     2    1
    17     2     3    1
    18     3    25    1
    19    25    26   ar
    20    26    27   ar
    21    27    31    1
    22    31    32   ar
    23    32    33   ar
    24    33    34   ar
    25    34    35    1
    26    34    36   ar
    27    36    37   ar
    28    27    28   ar
    29    28    29   ar
    30     3     4    1
    31     4     5    1
    32     5     6    2
    33     6     7    1
    34     7     8    2
    35     8     9    1
    36     9    10    1
    37    10    11    2
    38    11    12    1
    39    12    13    2
    40    40    41   ar
    41    41    42   ar
    42    42    38   ar
    43     6     1    1
    44    13     8    1
    45    20    15   ar
    46    29    25   ar
    47    13     5    1
    48    37    31   ar
    49     2    14    1
    50    29    30    1
