@<TRIPOS>MOLECULE
*****
 42 46 0 0 0
SMALL
GASTEIGER

@<TRIPOS>ATOM
      1 C         140.7741  145.2009  160.3594 C.3     1  UNL1        0.1700
      2 O         141.7309  145.8868  159.4296 O.3     1  UNL1       -0.3793
      3 H         141.7658  145.4049  158.5885 H       1  UNL1        0.2106
      4 C         140.0525  143.9636  159.9141 C.3     1  UNL1        0.2358
      5 O         140.6712  142.6147  160.1330 O.3     1  UNL1       -0.4727
      6 C         140.2835  140.0504  160.2881 C.ar    1  UNL1        0.0709
      7 C         139.4255  138.8884  160.6925 C.ar    1  UNL1        0.0355
      8 C         138.0971  139.1288  161.3464 C.ar    1  UNL1        0.1404
      9 F         137.2391  137.9668  161.7509 F       1  UNL1       -0.2042
     10 C         137.6267  140.5312  161.5959 C.ar    1  UNL1        0.0328
     11 C         138.4848  141.6931  161.1914 C.ar    1  UNL1        0.0393
     12 C         139.8132  141.4527  160.5375 C.ar    1  UNL1        0.1415
     13 O         141.7140  139.7628  158.1384 O.2     1  UNL1       -0.2912
     14 C         141.6119  139.8101  159.6342 C.2     1  UNL1        0.1764
     15 C         142.8383  139.6170  160.4761 C.3     1  UNL1        0.0739
     16 C         142.9908  138.3767  161.3058 C.3     1  UNL1        0.0345
     17 C         142.8029  138.4411  162.7926 C.ar    1  UNL1       -0.0217
     18 C         143.6611  139.3532  163.6182 C.ar    1  UNL1       -0.0043
     19 C         143.4731  139.4176  165.1049 C.ar    1  UNL1       -0.0003
     20 C         142.4271  138.5699  165.7661 C.ar    1  UNL1       -0.0000
     21 C         141.5689  137.6578  164.9405 C.ar    1  UNL1       -0.0003
     22 C         141.7568  137.5934  163.4538 C.ar    1  UNL1       -0.0043
     23 C         140.5391  145.7523  161.7344 C.3     1  UNL1        0.1056
     24 N         140.4933  144.8285  162.9152 N.3     1  UNL1       -0.2682
     25 C         139.2746  144.7879  163.7888 C.3     1  UNL1        0.0897
     26 C         139.2288  143.8641  164.9697 C.3     1  UNL1        0.0901
     27 N         140.4016  142.9809  165.2770 N.3     1  UNL1       -0.2644
     28 C         141.6203  143.0216  164.4034 C.3     1  UNL1        0.0901
     29 C         141.6661  143.9454  163.2225 C.3     1  UNL1        0.0897
     30 C         140.3558  142.0571  166.4579 C.3     1  UNL1        0.1031
     31 C         141.1178  142.3954  167.7048 C.ar    1  UNL1       -0.0036
     32 C         140.4717  143.2206  168.7780 C.ar    1  UNL1       -0.0026
     33 C         141.2338  143.5589  170.0249 C.ar    1  UNL1       -0.0003
     34 C         142.6419  143.0720  170.1987 C.ar    1  UNL1       -0.0000
     35 C         143.2880  142.2469  169.1256 C.ar    1  UNL1       -0.0003
     36 C         142.5259  141.9086  167.8786 C.ar    1  UNL1       -0.0026
     37 C         139.5480  140.7950  166.3919 C.ar    1  UNL1       -0.0036
     38 C         139.1624  140.0843  167.6553 C.ar    1  UNL1       -0.0026
     39 C         138.3546  138.8221  167.5892 C.ar    1  UNL1       -0.0003
     40 C         137.9322  138.2707  166.2597 C.ar    1  UNL1       -0.0000
     41 C         138.3177  138.9814  164.9963 C.ar    1  UNL1       -0.0003
     42 C         139.1256  140.2435  165.0623 C.ar    1  UNL1       -0.0026
@<TRIPOS>BOND
     1    13    14    2
     2    14    15    1
     3    15    16    1
     4    16    17    1
     5    17    18   ar
     6    18    19   ar
     7    19    20   ar
     8    20    21   ar
     9    21    22   ar
    10    14     6    1
    11     6     7   ar
    12     7     8   ar
    13     8     9    1
    14     8    10   ar
    15    10    11   ar
    16    11    12   ar
    17    12     5    1
    18     5     4    1
    19     4     1    1
    20     1     2    1
    21     1    23    1
    22    23    24    1
    23    24    25    1
    24    25    26    1
    25    26    27    1
    26    27    30    1
    27    30    31    1
    28    31    32   ar
    29    32    33   ar
    30    33    34   ar
    31    34    35   ar
    32    35    36   ar
    33    30    37    1
    34    37    38   ar
    35    38    39   ar
    36    39    40   ar
    37    40    41   ar
    38    41    42   ar
    39    27    28    1
    40    28    29    1
    41    22    17   ar
    42    12     6   ar
    43    29    24    1
    44    36    31   ar
    45    42    37   ar
    46     2     3    1
@<TRIPOS>MOLECULE
*****
 42 46 0 0 0
SMALL
GASTEIGER

@<TRIPOS>ATOM
      1 C         140.7605  145.2038  160.3378 C.3     1  UNL1        0.1700
      2 O         141.8538  145.8837  159.5681 O.3     1  UNL1       -0.3793
      3 H         141.9811  145.4315  158.7194 H       1  UNL1        0.2106
      4 C         140.0599  144.0134  159.7528 C.3     1  UNL1        0.2358
      5 O         140.6389  142.6409  159.9292 O.3     1  UNL1       -0.4727
      6 C         140.1792  140.0935  160.1510 C.ar    1  UNL1        0.0709
      7 C         139.3081  138.9668  160.6218 C.ar    1  UNL1        0.0355
      8 C         138.0254  139.2609  161.3416 C.ar    1  UNL1        0.1404
      9 F         137.1542  138.1342  161.8124 F       1  UNL1       -0.2042
     10 C         137.6138  140.6817  161.5907 C.ar    1  UNL1        0.0328
     11 C         138.4850  141.8084  161.1199 C.ar    1  UNL1        0.0393
     12 C         139.7677  141.5142  160.4000 C.ar    1  UNL1        0.1415
     13 O         141.5556  140.0103  157.9490 O.2     1  UNL1       -0.2912
     14 C         141.4619  139.7994  159.4312 C.2     1  UNL1        0.1764
     15 C         142.6510  139.2944  160.1935 C.3     1  UNL1        0.0739
     16 C         143.0939  139.9959  161.4432 C.3     1  UNL1        0.0345
     17 C         142.8650  139.3591  162.7820 C.ar    1  UNL1       -0.0217
     18 C         142.0479  138.1056  162.8864 C.ar    1  UNL1       -0.0043
     19 C         141.8190  137.4690  164.2251 C.ar    1  UNL1       -0.0003
     20 C         142.4072  138.0858  165.4594 C.ar    1  UNL1       -0.0000
     21 C         143.2243  139.3394  165.3550 C.ar    1  UNL1       -0.0003
     22 C         143.4532  139.9760  164.0162 C.ar    1  UNL1       -0.0043
     23 C         140.3677  145.7143  161.6924 C.3     1  UNL1        0.1056
     24 N         140.3552  144.7847  162.8696 N.3     1  UNL1       -0.2682
     25 C         141.5451  143.9162  163.1521 C.3     1  UNL1        0.0897
     26 C         141.5326  142.9866  164.3293 C.3     1  UNL1        0.0901
     27 N         140.3302  142.9256  165.2240 N.3     1  UNL1       -0.2644
     28 C         139.1404  143.7941  164.9415 C.3     1  UNL1        0.0901
     29 C         139.1529  144.7237  163.7643 C.3     1  UNL1        0.0897
     30 C         140.3178  141.9960  166.4012 C.3     1  UNL1        0.1031
     31 C         139.5646  140.7010  166.3262 C.ar    1  UNL1       -0.0036
     32 C         139.3292  140.0460  164.9974 C.ar    1  UNL1       -0.0026
     33 C         138.5760  138.7510  164.9225 C.ar    1  UNL1       -0.0003
     34 C         138.0581  138.1110  166.1764 C.ar    1  UNL1       -0.0000
     35 C         138.2934  138.7659  167.5051 C.ar    1  UNL1       -0.0003
     36 C         139.0467  140.0610  167.5801 C.ar    1  UNL1       -0.0026
     37 C         141.0585  142.3614  167.6532 C.ar    1  UNL1       -0.0036
     38 C         142.4658  141.8847  167.8583 C.ar    1  UNL1       -0.0026
     39 C         143.2065  142.2501  169.1105 C.ar    1  UNL1       -0.0003
     40 C         142.5399  143.0923  170.1575 C.ar    1  UNL1       -0.0000
     41 C         141.1325  143.5690  169.9524 C.ar    1  UNL1       -0.0003
     42 C         140.3918  143.2036  168.7004 C.ar    1  UNL1       -0.0026
@<TRIPOS>BOND
     1    13    14    2
     2    14    15    1
     3    15    16    1
     4    16    17    1
     5    17    18   ar
     6    18    19   ar
     7    19    20   ar
     8    20    21   ar
     9    21    22   ar
    10    14     6    1
    11     6     7   ar
    12     7     8   ar
    13     8     9    1
    14     8    10   ar
    15    10    11   ar
    16    11    12   ar
    17    12     5    1
    18     5     4    1
    19     4     1    1
    20     1     2    1
    21     1    23    1
    22    23    24    1
    23    24    25    1
    24    25    26    1
    25    26    27    1
    26    27    30    1
    27    30    31    1
    28    31    32   ar
    29    32    33   ar
    30    33    34   ar
    31    34    35   ar
    32    35    36   ar
    33    30    37    1
    34    37    38   ar
    35    38    39   ar
    36    39    40   ar
    37    40    41   ar
    38    41    42   ar
    39    27    28    1
    40    28    29    1
    41    22    17   ar
    42    12     6   ar
    43    29    24    1
    44    36    31   ar
    45    42    37   ar
    46     2     3    1
@<TRIPOS>MOLECULE
*****
 42 46 0 0 0
SMALL
GASTEIGER

@<TRIPOS>ATOM
      1 C         139.9830  145.9353  161.3413 C.3     1  UNL1        0.1700
      2 O         139.0425  147.0221  160.9116 O.3     1  UNL1       -0.3793
      3 H         138.6989  146.8213  160.0270 H       1  UNL1        0.2106
      4 C         140.2531  144.7740  160.4311 C.3     1  UNL1        0.2358
      5 O         139.6137  143.4443  160.7018 O.3     1  UNL1       -0.4727
      6 C         138.3874  141.3255  159.8320 C.ar    1  UNL1        0.0709
      7 C         137.9192  140.4722  158.6906 C.ar    1  UNL1        0.0355
      8 C         138.2092  140.8843  157.2778 C.ar    1  UNL1        0.1404
      9 F         137.7411  140.0310  156.1365 F       1  UNL1       -0.2042
     10 C         138.9674  142.1498  157.0063 C.ar    1  UNL1        0.0328
     11 C         139.4356  143.0032  158.1477 C.ar    1  UNL1        0.0393
     12 C         139.1455  142.5910  159.5605 C.ar    1  UNL1        0.1415
     13 O         137.2794  141.8035  162.1328 O.2     1  UNL1       -0.2912
     14 C         138.0974  140.9134  161.2447 C.2     1  UNL1        0.1764
     15 C         138.6254  139.6111  161.7696 C.3     1  UNL1        0.0739
     16 C         139.7316  138.9036  161.0446 C.3     1  UNL1        0.0345
     17 C         141.1561  139.1065  161.4685 C.ar    1  UNL1       -0.0217
     18 C         141.5826  140.4161  162.0624 C.ar    1  UNL1       -0.0043
     19 C         143.0071  140.6190  162.4863 C.ar    1  UNL1       -0.0003
     20 C         144.0051  139.5121  162.3162 C.ar    1  UNL1       -0.0000
     21 C         143.5786  138.2025  161.7222 C.ar    1  UNL1       -0.0003
     22 C         142.1541  137.9996  161.2984 C.ar    1  UNL1       -0.0043
     23 C         140.6533  146.0099  162.6811 C.3     1  UNL1        0.1056
     24 N         140.6309  144.8230  163.5980 N.3     1  UNL1       -0.2682
     25 C         141.9185  144.2103  164.0633 C.3     1  UNL1        0.0897
     26 C         141.8961  143.0234  164.9803 C.3     1  UNL1        0.0901
     27 N         140.5861  142.4492  165.4319 N.3     1  UNL1       -0.2644
     28 C         139.2984  143.0619  164.9667 C.3     1  UNL1        0.0901
     29 C         139.3208  144.2488  164.0497 C.3     1  UNL1        0.0897
     30 C         140.5637  141.2623  166.3489 C.3     1  UNL1        0.1031
     31 C         140.3814  141.4581  167.8248 C.ar    1  UNL1       -0.0036
     32 C         140.5285  142.8255  168.4238 C.ar    1  UNL1       -0.0026
     33 C         140.3463  143.0213  169.8997 C.ar    1  UNL1       -0.0003
     34 C         140.0168  141.8499  170.7767 C.ar    1  UNL1       -0.0000
     35 C         139.8697  140.4826  170.1778 C.ar    1  UNL1       -0.0003
     36 C         140.0519  140.2867  168.7018 C.ar    1  UNL1       -0.0026
     37 C         140.7235  139.8796  165.7899 C.ar    1  UNL1       -0.0036
     38 C         142.0854  139.2561  165.7092 C.ar    1  UNL1       -0.0026
     39 C         142.2452  137.8733  165.1502 C.ar    1  UNL1       -0.0003
     40 C         141.0432  137.1141  164.6720 C.ar    1  UNL1       -0.0000
     41 C         139.6813  137.7376  164.7527 C.ar    1  UNL1       -0.0003
     42 C         139.5215  139.1203  165.3117 C.ar    1  UNL1       -0.0026
@<TRIPOS>BOND
     1    13    14    2
     2    14    15    1
     3    15    16    1
     4    16    17    1
     5    17    18   ar
     6    18    19   ar
     7    19    20   ar
     8    20    21   ar
     9    21    22   ar
    10    14     6    1
    11     6     7   ar
    12     7     8   ar
    13     8     9    1
    14     8    10   ar
    15    10    11   ar
    16    11    12   ar
    17    12     5    1
    18     5     4    1
    19     4     1    1
    20     1     2    1
    21     1    23    1
    22    23    24    1
    23    24    25    1
    24    25    26    1
    25    26    27    1
    26    27    30    1
    27    30    31    1
    28    31    32   ar
    29    32    33   ar
    30    33    34   ar
    31    34    35   ar
    32    35    36   ar
    33    30    37    1
    34    37    38   ar
    35    38    39   ar
    36    39    40   ar
    37    40    41   ar
    38    41    42   ar
    39    27    28    1
    40    28    29    1
    41    22    17   ar
    42    12     6   ar
    43    29    24    1
    44    36    31   ar
    45    42    37   ar
    46     2     3    1
@<TRIPOS>MOLECULE
*****
 42 46 0 0 0
SMALL
GASTEIGER

@<TRIPOS>ATOM
      1 C         140.0140  145.5315  161.6470 C.3     1  UNL1        0.1700
      2 O         139.3257  146.7993  161.2356 O.3     1  UNL1       -0.3793
      3 H         138.8012  146.6376  160.4358 H       1  UNL1        0.2106
      4 C         139.8239  144.2799  160.8425 C.3     1  UNL1        0.2358
      5 O         138.4756  143.6254  160.7810 O.3     1  UNL1       -0.4727
      6 C         138.4939  141.1046  160.1523 C.ar    1  UNL1        0.0709
      7 C         138.3398  139.6660  160.5479 C.ar    1  UNL1        0.0355
      8 C         138.0132  139.3094  161.9678 C.ar    1  UNL1        0.1404
      9 F         137.8591  137.8708  162.3635 F       1  UNL1       -0.2042
     10 C         137.8407  140.3916  162.9922 C.ar    1  UNL1        0.0328
     11 C         137.9949  141.8303  162.5966 C.ar    1  UNL1        0.0393
     12 C         138.3214  142.1868  161.1766 C.ar    1  UNL1        0.1415
     13 O         137.7849  142.1145  157.8660 O.2     1  UNL1       -0.2912
     14 C         138.8205  141.4611  158.7324 C.2     1  UNL1        0.1764
     15 C         140.1827  141.1643  158.1788 C.3     1  UNL1        0.0739
     16 C         141.3999  141.3717  159.0306 C.3     1  UNL1        0.0345
     17 C         141.8422  140.2985  159.9807 C.ar    1  UNL1       -0.0217
     18 C         142.2261  138.9459  159.4582 C.ar    1  UNL1       -0.0043
     19 C         142.6684  137.8728  160.4083 C.ar    1  UNL1       -0.0003
     20 C         142.7268  138.1523  161.8809 C.ar    1  UNL1       -0.0000
     21 C         142.3429  139.5049  162.4033 C.ar    1  UNL1       -0.0003
     22 C         141.9006  140.5780  161.4532 C.ar    1  UNL1       -0.0043
     23 C         140.8923  145.5155  162.8628 C.3     1  UNL1        0.1056
     24 N         140.7767  144.3982  163.8569 N.3     1  UNL1       -0.2682
     25 C         141.8686  143.3757  163.9663 C.3     1  UNL1        0.0897
     26 C         141.7530  142.2584  164.9604 C.3     1  UNL1        0.0901
     27 N         140.5455  142.1636  165.8452 N.3     1  UNL1       -0.2644
     28 C         139.4536  143.1862  165.7358 C.3     1  UNL1        0.0901
     29 C         139.5692  144.3035  164.7417 C.3     1  UNL1        0.0897
     30 C         140.4299  141.0463  166.8393 C.3     1  UNL1        0.1031
     31 C         139.7497  139.7664  166.4533 C.ar    1  UNL1       -0.0036
     32 C         138.4646  139.3700  167.1178 C.ar    1  UNL1       -0.0026
     33 C         137.7843  138.0901  166.7318 C.ar    1  UNL1       -0.0003
     34 C         138.3891  137.2065  165.6814 C.ar    1  UNL1       -0.0000
     35 C         139.6741  137.6028  165.0168 C.ar    1  UNL1       -0.0003
     36 C         140.3544  138.8828  165.4028 C.ar    1  UNL1       -0.0026
     37 C         140.9946  141.2089  168.2194 C.ar    1  UNL1       -0.0036
     38 C         140.2156  141.9490  169.2660 C.ar    1  UNL1       -0.0026
     39 C         140.7803  142.1116  170.6462 C.ar    1  UNL1       -0.0003
     40 C         142.1239  141.5341  170.9796 C.ar    1  UNL1       -0.0000
     41 C         142.9029  140.7940  169.9329 C.ar    1  UNL1       -0.0003
     42 C         142.3382  140.6314  168.5528 C.ar    1  UNL1       -0.0026
@<TRIPOS>BOND
     1    13    14    2
     2    14    15    1
     3    15    16    1
     4    16    17    1
     5    17    18   ar
     6    18    19   ar
     7    19    20   ar
     8    20    21   ar
     9    21    22   ar
    10    14     6    1
    11     6     7   ar
    12     7     8   ar
    13     8     9    1
    14     8    10   ar
    15    10    11   ar
    16    11    12   ar
    17    12     5    1
    18     5     4    1
    19     4     1    1
    20     1     2    1
    21     1    23    1
    22    23    24    1
    23    24    25    1
    24    25    26    1
    25    26    27    1
    26    27    30    1
    27    30    31    1
    28    31    32   ar
    29    32    33   ar
    30    33    34   ar
    31    34    35   ar
    32    35    36   ar
    33    30    37    1
    34    37    38   ar
    35    38    39   ar
    36    39    40   ar
    37    40    41   ar
    38    41    42   ar
    39    27    28    1
    40    28    29    1
    41    22    17   ar
    42    12     6   ar
    43    29    24    1
    44    36    31   ar
    45    42    37   ar
    46     2     3    1
@<TRIPOS>MOLECULE
*****
 42 46 0 0 0
SMALL
GASTEIGER

@<TRIPOS>ATOM
      1 C         140.7640  145.1092  160.1643 C.3     1  UNL1        0.1700
      2 O         141.8053  145.8774  159.4055 O.3     1  UNL1       -0.3793
      3 H         141.9586  145.4530  158.5469 H       1  UNL1        0.2106
      4 C         140.1424  143.8869  159.5562 C.3     1  UNL1        0.2358
      5 O         138.7554  143.4749  159.9521 O.3     1  UNL1       -0.4727
      6 C         138.6328  140.8979  159.6456 C.ar    1  UNL1        0.0709
      7 C         138.3902  139.5320  160.2160 C.ar    1  UNL1        0.0355
      8 C         138.0277  139.3771  161.6632 C.ar    1  UNL1        0.1404
      9 F         137.7851  138.0111  162.2336 F       1  UNL1       -0.2042
     10 C         137.9077  140.5882  162.5402 C.ar    1  UNL1        0.0328
     11 C         138.1503  141.9541  161.9698 C.ar    1  UNL1        0.0393
     12 C         138.5129  142.1090  160.5225 C.ar    1  UNL1        0.1415
     13 O         138.0520  141.7434  157.2587 O.2     1  UNL1       -0.2912
     14 C         138.9954  141.0529  158.1984 C.2     1  UNL1        0.1764
     15 C         140.3013  140.5172  157.6909 C.3     1  UNL1        0.0739
     16 C         141.5711  140.8079  158.4346 C.3     1  UNL1        0.0345
     17 C         142.0320  139.8831  159.5220 C.ar    1  UNL1       -0.0217
     18 C         142.4912  138.4961  159.1824 C.ar    1  UNL1       -0.0043
     19 C         142.9520  137.5714  160.2698 C.ar    1  UNL1       -0.0003
     20 C         142.9536  138.0337  161.6968 C.ar    1  UNL1       -0.0000
     21 C         142.4944  139.4207  162.0364 C.ar    1  UNL1       -0.0003
     22 C         142.0336  140.3454  160.9490 C.ar    1  UNL1       -0.0043
     23 C         140.3445  145.5631  161.5309 C.3     1  UNL1        0.1056
     24 N         140.3785  144.6035  162.6833 N.3     1  UNL1       -0.2682
     25 C         139.3518  144.7026  163.7723 C.3     1  UNL1        0.0897
     26 C         139.3858  143.7430  164.9247 C.3     1  UNL1        0.0901
     27 N         140.4465  142.6843  164.9881 N.3     1  UNL1       -0.2644
     28 C         141.4732  142.5852  163.8990 C.3     1  UNL1        0.0901
     29 C         141.4392  143.5448  162.7466 C.3     1  UNL1        0.0897
     30 C         140.4805  141.7247  166.1404 C.3     1  UNL1        0.1031
     31 C         141.1340  142.1242  167.4301 C.ar    1  UNL1       -0.0036
     32 C         140.3612  142.9035  168.4527 C.ar    1  UNL1       -0.0026
     33 C         141.0148  143.3030  169.7423 C.ar    1  UNL1       -0.0003
     34 C         142.4411  142.9233  170.0094 C.ar    1  UNL1       -0.0000
     35 C         143.2139  142.1441  168.9870 C.ar    1  UNL1       -0.0003
     36 C         142.5604  141.7445  167.6972 C.ar    1  UNL1       -0.0026
     37 C         139.8610  140.3656  166.0032 C.ar    1  UNL1       -0.0036
     38 C         138.6405  140.0136  166.8011 C.ar    1  UNL1       -0.0026
     39 C         138.0210  138.6543  166.6638 C.ar    1  UNL1       -0.0003
     40 C         138.6219  137.6472  165.7286 C.ar    1  UNL1       -0.0000
     41 C         139.8423  137.9992  164.9307 C.ar    1  UNL1       -0.0003
     42 C         140.4619  139.3583  165.0680 C.ar    1  UNL1       -0.0026
@<TRIPOS>BOND
     1    13    14    2
     2    14    15    1
     3    15    16    1
     4    16    17    1
     5    17    18   ar
     6    18    19   ar
     7    19    20   ar
     8    20    21   ar
     9    21    22   ar
    10    14     6    1
    11     6     7   ar
    12     7     8   ar
    13     8     9    1
    14     8    10   ar
    15    10    11   ar
    16    11    12   ar
    17    12     5    1
    18     5     4    1
    19     4     1    1
    20     1     2    1
    21     1    23    1
    22    23    24    1
    23    24    25    1
    24    25    26    1
    25    26    27    1
    26    27    30    1
    27    30    31    1
    28    31    32   ar
    29    32    33   ar
    30    33    34   ar
    31    34    35   ar
    32    35    36   ar
    33    30    37    1
    34    37    38   ar
    35    38    39   ar
    36    39    40   ar
    37    40    41   ar
    38    41    42   ar
    39    27    28    1
    40    28    29    1
    41    22    17   ar
    42    12     6   ar
    43    29    24    1
    44    36    31   ar
    45    42    37   ar
    46     2     3    1
@<TRIPOS>MOLECULE
*****
 42 46 0 0 0
SMALL
GASTEIGER

@<TRIPOS>ATOM
      1 C         140.6455  145.3251  160.1228 C.3     1  UNL1        0.1700
      2 O         141.8890  145.9251  159.5364 O.3     1  UNL1       -0.3793
      3 H         142.0007  145.6116  158.6253 H       1  UNL1        0.2106
      4 C         139.8017  144.3960  159.3013 C.3     1  UNL1        0.2358
      5 O         139.3401  143.0918  159.8809 O.3     1  UNL1       -0.4727
      6 C         139.8627  140.5548  160.0819 C.ar    1  UNL1        0.0709
      7 C         140.8460  139.4450  160.3086 C.ar    1  UNL1        0.0355
      8 C         142.2901  139.7624  160.5610 C.ar    1  UNL1        0.1404
      9 F         143.2735  138.6526  160.7877 F       1  UNL1       -0.2042
     10 C         142.7510  141.1896  160.5867 C.ar    1  UNL1        0.0328
     11 C         141.7677  142.2994  160.3600 C.ar    1  UNL1        0.0393
     12 C         140.3235  141.9820  160.1076 C.ar    1  UNL1        0.1415
     13 O         137.9216  140.0718  158.4240 O.2     1  UNL1       -0.2912
     14 C         138.4186  140.2374  159.8295 C.2     1  UNL1        0.1764
     15 C         137.4714  140.0855  160.9827 C.3     1  UNL1        0.0739
     16 C         137.8234  140.6596  162.3230 C.3     1  UNL1        0.0345
     17 C         138.2046  139.7489  163.4524 C.ar    1  UNL1       -0.0217
     18 C         138.6476  138.3446  163.1666 C.ar    1  UNL1       -0.0043
     19 C         139.0288  137.4340  164.2959 C.ar    1  UNL1       -0.0003
     20 C         138.9669  137.9276  165.7110 C.ar    1  UNL1       -0.0000
     21 C         138.5239  139.3319  165.9968 C.ar    1  UNL1       -0.0003
     22 C         138.1427  140.2425  164.8675 C.ar    1  UNL1       -0.0043
     23 C         140.2459  145.6541  161.5306 C.3     1  UNL1        0.1056
     24 N         140.6116  144.7257  162.6505 N.3     1  UNL1       -0.2682
     25 C         139.5558  143.8806  163.2993 C.3     1  UNL1        0.0897
     26 C         139.9215  142.9522  164.4193 C.3     1  UNL1        0.0901
     27 N         141.3432  142.8688  164.8904 N.3     1  UNL1       -0.2644
     28 C         142.3990  143.7139  164.2416 C.3     1  UNL1        0.0901
     29 C         142.0333  144.6423  163.1216 C.3     1  UNL1        0.0897
     30 C         141.7089  141.9404  166.0103 C.3     1  UNL1        0.1031
     31 C         141.6898  142.4308  167.4277 C.ar    1  UNL1       -0.0036
     32 C         140.4217  142.9749  168.0160 C.ar    1  UNL1       -0.0026
     33 C         140.4025  143.4654  169.4334 C.ar    1  UNL1       -0.0003
     34 C         141.6514  143.4118  170.2625 C.ar    1  UNL1       -0.0000
     35 C         142.9194  142.8678  169.6743 C.ar    1  UNL1       -0.0003
     36 C         142.9386  142.3773  168.2568 C.ar    1  UNL1       -0.0026
     37 C         142.0939  140.5215  165.7129 C.ar    1  UNL1       -0.0036
     38 C         141.9227  139.9726  164.3274 C.ar    1  UNL1       -0.0026
     39 C         142.3077  138.5536  164.0300 C.ar    1  UNL1       -0.0003
     40 C         142.8637  137.6836  165.1180 C.ar    1  UNL1       -0.0000
     41 C         143.0349  138.2325  166.5034 C.ar    1  UNL1       -0.0003
     42 C         142.6500  139.6514  166.8009 C.ar    1  UNL1       -0.0026
@<TRIPOS>BOND
     1    13    14    2
     2    14    15    1
     3    15    16    1
     4    16    17    1
     5    17    18   ar
     6    18    19   ar
     7    19    20   ar
     8    20    21   ar
     9    21    22   ar
    10    14     6    1
    11     6     7   ar
    12     7     8   ar
    13     8     9    1
    14     8    10   ar
    15    10    11   ar
    16    11    12   ar
    17    12     5    1
    18     5     4    1
    19     4     1    1
    20     1     2    1
    21     1    23    1
    22    23    24    1
    23    24    25    1
    24    25    26    1
    25    26    27    1
    26    27    30    1
    27    30    31    1
    28    31    32   ar
    29    32    33   ar
    30    33    34   ar
    31    34    35   ar
    32    35    36   ar
    33    30    37    1
    34    37    38   ar
    35    38    39   ar
    36    39    40   ar
    37    40    41   ar
    38    41    42   ar
    39    27    28    1
    40    28    29    1
    41    22    17   ar
    42    12     6   ar
    43    29    24    1
    44    36    31   ar
    45    42    37   ar
    46     2     3    1
@<TRIPOS>MOLECULE
*****
 42 46 0 0 0
SMALL
GASTEIGER

@<TRIPOS>ATOM
      1 C         142.5550  139.2056  157.9456 C.3     1  UNL1        0.1700
      2 O         143.5493  138.4249  157.1380 O.3     1  UNL1       -0.3793
      3 H         144.2499  139.0187  156.8259 H       1  UNL1        0.2106
      4 C         142.7488  140.6785  158.1533 C.3     1  UNL1        0.2358
      5 O         143.3101  141.1858  159.4485 O.3     1  UNL1       -0.4727
      6 C         143.1295  142.7594  161.5079 C.ar    1  UNL1        0.0709
      7 C         142.4794  143.9179  162.2044 C.ar    1  UNL1        0.0355
      8 C         141.3599  144.6614  161.5382 C.ar    1  UNL1        0.1404
      9 F         140.7098  145.8199  162.2347 F       1  UNL1       -0.2042
     10 C         140.8904  144.2463  160.1753 C.ar    1  UNL1        0.0328
     11 C         141.5405  143.0878  159.4787 C.ar    1  UNL1        0.0393
     12 C         142.6601  142.3443  160.1451 C.ar    1  UNL1        0.1415
     13 O         145.6451  142.1227  161.6360 O.2     1  UNL1       -0.2912
     14 C         144.2490  142.0159  162.1741 C.2     1  UNL1        0.1764
     15 C         143.9724  141.1656  163.3786 C.3     1  UNL1        0.0739
     16 C         144.1619  141.7307  164.7551 C.3     1  UNL1        0.0345
     17 C         143.2514  141.3098  165.8705 C.ar    1  UNL1       -0.0217
     18 C         142.5471  139.9871  165.8051 C.ar    1  UNL1       -0.0043
     19 C         141.6367  139.5663  166.9204 C.ar    1  UNL1       -0.0003
     20 C         141.4306  140.4682  168.1012 C.ar    1  UNL1       -0.0000
     21 C         142.1349  141.7909  168.1665 C.ar    1  UNL1       -0.0003
     22 C         143.0453  142.2117  167.0512 C.ar    1  UNL1       -0.0043
     23 C         141.3672  138.5134  158.5454 C.3     1  UNL1        0.1056
     24 N         140.8096  138.9815  159.8568 N.3     1  UNL1       -0.2682
     25 C         141.6010  138.7960  161.1174 C.3     1  UNL1        0.0897
     26 C         141.0434  139.2641  162.4289 C.3     1  UNL1        0.0901
     27 N         139.6943  139.9177  162.4798 N.3     1  UNL1       -0.2644
     28 C         138.9028  140.1033  161.2192 C.3     1  UNL1        0.0901
     29 C         139.4604  139.6352  159.9077 C.3     1  UNL1        0.0897
     30 C         139.1367  140.3858  163.7912 C.3     1  UNL1        0.1031
     31 C         139.0467  141.8536  164.0869 C.ar    1  UNL1       -0.0036
     32 C         140.1695  142.5449  164.8022 C.ar    1  UNL1       -0.0026
     33 C         140.0795  144.0127  165.0978 C.ar    1  UNL1       -0.0003
     34 C         138.8667  144.7893  164.6783 C.ar    1  UNL1       -0.0000
     35 C         137.7440  144.0981  163.9630 C.ar    1  UNL1       -0.0003
     36 C         137.8339  142.6302  163.6673 C.ar    1  UNL1       -0.0026
     37 C         138.6691  139.3862  164.8071 C.ar    1  UNL1       -0.0036
     38 C         138.7665  137.9182  164.5147 C.ar    1  UNL1       -0.0026
     39 C         138.2989  136.9185  165.5306 C.ar    1  UNL1       -0.0003
     40 C         137.7338  137.3868  166.8388 C.ar    1  UNL1       -0.0000
     41 C         137.6364  138.8548  167.1311 C.ar    1  UNL1       -0.0003
     42 C         138.1040  139.8545  166.1153 C.ar    1  UNL1       -0.0026
@<TRIPOS>BOND
     1    13    14    2
     2    14    15    1
     3    15    16    1
     4    16    17    1
     5    17    18   ar
     6    18    19   ar
     7    19    20   ar
     8    20    21   ar
     9    21    22   ar
    10    14     6    1
    11     6     7   ar
    12     7     8   ar
    13     8     9    1
    14     8    10   ar
    15    10    11   ar
    16    11    12   ar
    17    12     5    1
    18     5     4    1
    19     4     1    1
    20     1     2    1
    21     1    23    1
    22    23    24    1
    23    24    25    1
    24    25    26    1
    25    26    27    1
    26    27    30    1
    27    30    31    1
    28    31    32   ar
    29    32    33   ar
    30    33    34   ar
    31    34    35   ar
    32    35    36   ar
    33    30    37    1
    34    37    38   ar
    35    38    39   ar
    36    39    40   ar
    37    40    41   ar
    38    41    42   ar
    39    27    28    1
    40    28    29    1
    41    22    17   ar
    42    12     6   ar
    43    29    24    1
    44    36    31   ar
    45    42    37   ar
    46     2     3    1
@<TRIPOS>MOLECULE
*****
 42 46 0 0 0
SMALL
GASTEIGER

@<TRIPOS>ATOM
      1 C         144.4163  142.8647  160.7111 C.3     1  UNL1        0.1700
      2 O         145.8120  142.5382  160.2687 O.3     1  UNL1       -0.3793
      3 H         145.7789  142.0281  159.4443 H       1  UNL1        0.2106
      4 C         143.2442  142.4032  159.8967 C.3     1  UNL1        0.2358
      5 O         143.1789  140.9848  159.4130 O.3     1  UNL1       -0.4727
      6 C         141.2943  139.4473  160.3265 C.ar    1  UNL1        0.0709
      7 C         140.8409  138.3588  161.2537 C.ar    1  UNL1        0.0355
      8 C         141.8186  137.7194  162.1945 C.ar    1  UNL1        0.1404
      9 F         141.3652  136.6309  163.1217 F       1  UNL1       -0.2042
     10 C         143.2498  138.1685  162.2082 C.ar    1  UNL1        0.0328
     11 C         143.7032  139.2569  161.2810 C.ar    1  UNL1        0.0393
     12 C         142.7254  139.8964  160.3402 C.ar    1  UNL1        0.1415
     13 O         140.2826  139.6732  157.9442 O.2     1  UNL1       -0.2912
     14 C         140.3166  140.0868  159.3857 C.2     1  UNL1        0.1764
     15 C         139.3729  141.1398  159.8863 C.3     1  UNL1        0.0739
     16 C         138.4198  140.8242  161.0008 C.3     1  UNL1        0.0345
     17 C         138.2229  141.8041  162.1193 C.ar    1  UNL1       -0.0217
     18 C         138.3243  143.2767  161.8529 C.ar    1  UNL1       -0.0043
     19 C         138.1273  144.2565  162.9715 C.ar    1  UNL1       -0.0003
     20 C         137.8291  143.7636  164.3564 C.ar    1  UNL1       -0.0000
     21 C         137.7277  142.2910  164.6229 C.ar    1  UNL1       -0.0003
     22 C         137.9246  141.3112  163.5043 C.ar    1  UNL1       -0.0043
     23 C         144.1929  143.6525  161.9678 C.3     1  UNL1        0.1056
     24 N         143.4785  143.0262  163.1286 N.3     1  UNL1       -0.2682
     25 C         144.1184  141.8989  163.8834 C.3     1  UNL1        0.0897
     26 C         143.4040  141.2726  165.0441 C.3     1  UNL1        0.0901
     27 N         142.0497  141.7736  165.4502 N.3     1  UNL1       -0.2644
     28 C         141.4098  142.9009  164.6954 C.3     1  UNL1        0.0901
     29 C         142.1242  143.5272  163.5346 C.3     1  UNL1        0.0897
     30 C         141.3353  141.1473  166.6109 C.3     1  UNL1        0.1031
     31 C         141.6660  141.5699  168.0116 C.ar    1  UNL1       -0.0036
     32 C         141.0207  142.7899  168.5992 C.ar    1  UNL1       -0.0026
     33 C         141.3514  143.2124  169.9999 C.ar    1  UNL1       -0.0003
     34 C         142.3275  142.4150  170.8131 C.ar    1  UNL1       -0.0000
     35 C         142.9728  141.1951  170.2257 C.ar    1  UNL1       -0.0003
     36 C         142.6421  140.7725  168.8249 C.ar    1  UNL1       -0.0026
     37 C         140.2902  140.0984  166.3710 C.ar    1  UNL1       -0.0036
     38 C         140.3674  139.2278  165.1520 C.ar    1  UNL1       -0.0026
     39 C         139.3222  138.1789  164.9121 C.ar    1  UNL1       -0.0003
     40 C         138.1999  138.0007  165.8912 C.ar    1  UNL1       -0.0000
     41 C         138.1227  138.8714  167.1102 C.ar    1  UNL1       -0.0003
     42 C         139.1678  139.9202  167.3501 C.ar    1  UNL1       -0.0026
@<TRIPOS>BOND
     1    13    14    2
     2    14    15    1
     3    15    16    1
     4    16    17    1
     5    17    18   ar
     6    18    19   ar
     7    19    20   ar
     8    20    21   ar
     9    21    22   ar
    10    14     6    1
    11     6     7   ar
    12     7     8   ar
    13     8     9    1
    14     8    10   ar
    15    10    11   ar
    16    11    12   ar
    17    12     5    1
    18     5     4    1
    19     4     1    1
    20     1     2    1
    21     1    23    1
    22    23    24    1
    23    24    25    1
    24    25    26    1
    25    26    27    1
    26    27    30    1
    27    30    31    1
    28    31    32   ar
    29    32    33   ar
    30    33    34   ar
    31    34    35   ar
    32    35    36   ar
    33    30    37    1
    34    37    38   ar
    35    38    39   ar
    36    39    40   ar
    37    40    41   ar
    38    41    42   ar
    39    27    28    1
    40    28    29    1
    41    22    17   ar
    42    12     6   ar
    43    29    24    1
    44    36    31   ar
    45    42    37   ar
    46     2     3    1
@<TRIPOS>MOLECULE
*****
 42 46 0 0 0
SMALL
GASTEIGER

@<TRIPOS>ATOM
      1 C         140.9620  145.2445  160.0228 C.3     1  UNL1        0.1700
      2 O         141.8946  146.0526  159.1700 O.3     1  UNL1       -0.3793
      3 H         141.9966  145.6234  158.3061 H       1  UNL1        0.2106
      4 C         140.3552  143.9833  159.4832 C.3     1  UNL1        0.2358
      5 O         140.9654  142.6544  159.8178 O.3     1  UNL1       -0.4727
      6 C         143.1713  141.3972  159.2672 C.ar    1  UNL1        0.0709
      7 C         144.0618  140.7096  158.2750 C.ar    1  UNL1        0.0355
      8 C         143.6367  140.5918  156.8413 C.ar    1  UNL1        0.1404
      9 F         144.5272  139.9043  155.8492 F       1  UNL1       -0.2042
     10 C         142.3212  141.1616  156.3998 C.ar    1  UNL1        0.0328
     11 C         141.4308  141.8491  157.3919 C.ar    1  UNL1        0.0393
     12 C         141.8559  141.9669  158.8257 C.ar    1  UNL1        0.1415
     13 O         144.5207  142.6192  161.1208 O.2     1  UNL1       -0.2912
     14 C         143.5963  141.5150  160.7008 C.2     1  UNL1        0.1764
     15 C         143.0970  140.5286  161.7146 C.3     1  UNL1        0.0739
     16 C         142.2697  139.3566  161.2765 C.3     1  UNL1        0.0345
     17 C         140.7983  139.3268  161.5669 C.ar    1  UNL1       -0.0217
     18 C         140.0982  140.5729  162.0217 C.ar    1  UNL1       -0.0043
     19 C         138.6269  140.5431  162.3120 C.ar    1  UNL1       -0.0003
     20 C         137.8557  139.2671  162.1475 C.ar    1  UNL1       -0.0000
     21 C         138.5557  138.0210  161.6926 C.ar    1  UNL1       -0.0003
     22 C         140.0270  138.0508  161.4023 C.ar    1  UNL1       -0.0043
     23 C         140.6362  145.6975  161.4151 C.3     1  UNL1        0.1056
     24 N         140.6621  144.7155  162.5487 N.3     1  UNL1       -0.2682
     25 C         141.9554  144.0739  162.9558 C.3     1  UNL1        0.0897
     26 C         141.9812  143.0919  164.0894 C.3     1  UNL1        0.0901
     27 N         140.7139  142.7515  164.8159 N.3     1  UNL1       -0.2644
     28 C         139.4206  143.3931  164.4088 C.3     1  UNL1        0.0901
     29 C         139.3947  144.3751  163.2752 C.3     1  UNL1        0.0897
     30 C         140.7397  141.7695  165.9494 C.3     1  UNL1        0.1031
     31 C         141.2691  142.1852  167.2899 C.ar    1  UNL1       -0.0036
     32 C         140.3776  142.9049  168.2581 C.ar    1  UNL1       -0.0026
     33 C         140.9069  143.3206  169.5986 C.ar    1  UNL1       -0.0003
     34 C         142.3278  143.0167  169.9709 C.ar    1  UNL1       -0.0000
     35 C         143.2194  142.2970  169.0028 C.ar    1  UNL1       -0.0003
     36 C         142.6900  141.8813  167.6623 C.ar    1  UNL1       -0.0026
     37 C         140.2362  140.3718  165.7426 C.ar    1  UNL1       -0.0036
     38 C         141.1630  139.3087  165.2317 C.ar    1  UNL1       -0.0026
     39 C         140.6594  137.9109  165.0248 C.ar    1  UNL1       -0.0003
     40 C         139.2292  137.5763  165.3288 C.ar    1  UNL1       -0.0000
     41 C         138.3024  138.6394  165.8396 C.ar    1  UNL1       -0.0003
     42 C         138.8059  140.0371  166.0465 C.ar    1  UNL1       -0.0026
@<TRIPOS>BOND
     1    13    14    2
     2    14    15    1
     3    15    16    1
     4    16    17    1
     5    17    18   ar
     6    18    19   ar
     7    19    20   ar
     8    20    21   ar
     9    21    22   ar
    10    14     6    1
    11     6     7   ar
    12     7     8   ar
    13     8     9    1
    14     8    10   ar
    15    10    11   ar
    16    11    12   ar
    17    12     5    1
    18     5     4    1
    19     4     1    1
    20     1     2    1
    21     1    23    1
    22    23    24    1
    23    24    25    1
    24    25    26    1
    25    26    27    1
    26    27    30    1
    27    30    31    1
    28    31    32   ar
    29    32    33   ar
    30    33    34   ar
    31    34    35   ar
    32    35    36   ar
    33    30    37    1
    34    37    38   ar
    35    38    39   ar
    36    39    40   ar
    37    40    41   ar
    38    41    42   ar
    39    27    28    1
    40    28    29    1
    41    22    17   ar
    42    12     6   ar
    43    29    24    1
    44    36    31   ar
    45    42    37   ar
    46     2     3    1
