@<TRIPOS>MOLECULE
*****
 39 42 0 0 0
SMALL
GASTEIGER

@<TRIPOS>ATOM
      1 C         140.4929  139.8447  166.2044 C.ar    1  UNL1        0.1214
      2 N         140.2216  139.2799  167.5673 N.ar    1  UNL1       -0.1677
      3 N         141.1486  139.9482  168.5389 N.ar    1  UNL1       -0.2508
      4 C         141.9928  140.9260  167.7764 C.ar    1  UNL1        0.0796
      5 C         143.0782  141.8664  168.2095 C.ar    1  UNL1        0.0219
      6 C         143.7582  142.7427  167.1999 C.ar    1  UNL1        0.0386
      7 C         143.3530  142.6788  165.7571 C.ar    1  UNL1        0.1444
      8 C         142.2676  141.7384  165.3240 C.ar    1  UNL1        0.0402
      9 C         141.5875  140.8620  166.3336 C.ar    1  UNL1        0.0412
     10 C         138.4186  140.9065  161.4092 C.ar    1  UNL1        0.0930
     11 C         137.7419  139.9780  160.4449 C.ar    1  UNL1        0.1067
     12 N         137.7252  138.6078  161.0551 N.ar    1  UNL1       -0.2252
     13 C         138.3915  138.6895  162.3965 C.ar    1  UNL1        0.1586
     14 N         138.6634  137.6539  163.4469 N.ar    1  UNL1       -0.3349
     15 C         139.3638  138.0389  164.7162 C.ar    1  UNL1        0.0945
     16 C         139.7924  139.4596  164.9350 C.ar    1  UNL1        0.1176
     17 N         139.5205  140.4953  163.8846 N.ar    1  UNL1       -0.2390
     18 C         138.8201  140.1102  162.6153 C.ar    1  UNL1        0.1210
     19 H         138.3821  136.7214  163.3033 H       1  UNL1        0.1675
     20 N         139.5059  143.1400  162.1705 N.am    1  UNL1       -0.3039
     21 C         138.6527  142.3738  161.2035 C.2     1  UNL1        0.2488
     22 O         138.0337  143.0749  160.0309 O.2     1  UNL1       -0.2700
     23 H         139.9122  142.6798  162.9402 H       1  UNL1        0.1496
     24 C         140.8917  144.2959  161.0555 C.3     1  UNL1        0.0196
     25 C         139.7400  144.6073  161.9648 C.3     1  UNL1        0.0572
     26 C         138.5884  144.9185  162.8742 C.3     1  UNL1        0.0196
     27 C         139.9742  146.0744  161.7591 C.3     1  UNL1        0.0196
     28 C         141.2191  139.6849  170.0139 C.3     1  UNL1        0.1300
     29 C         140.4352  140.5383  170.9663 C.3     1  UNL1        0.0582
     30 C         140.7519  141.9984  171.0998 C.3     1  UNL1        0.1417
     31 O         141.9770  142.4348  171.8473 O.3     1  UNL1       -0.3818
     32 H         142.4494  141.6546  172.1775 H       1  UNL1        0.2104
     33 C         139.8435  143.0220  170.4859 C.3     1  UNL1        0.1663
     34 O         140.3195  144.4325  170.3008 O.3     1  UNL1       -0.3795
     35 H         140.4626  144.8420  171.1684 H       1  UNL1        0.2105
     36 O         144.0331  143.5552  164.7475 O.3     1  UNL1       -0.4236
     37 C         143.2306  144.5334  163.9418 C.3     1  UNL1        0.5087
     38 F         141.8681  144.9511  164.4096 F       1  UNL1       -0.1550
     39 F         143.7908  145.0939  162.6681 F       1  UNL1       -0.1550
@<TRIPOS>BOND
     1    24    25    1
     2    25    26    1
     3    25    27    1
     4    25    20    1
     5    20    21   am
     6    21    22    2
     7    21    10    1
     8    10    11   ar
     9    11    12   ar
    10    12    13   ar
    11    13    14   ar
    12    14    15   ar
    13    15    16   ar
    14    16     1    1
    15     1     2   ar
    16     2     3   ar
    17     3    28    1
    18    28    29    1
    19    29    30    1
    20    30    31    1
    21    30    33    1
    22    33    34    1
    23     3     4   ar
    24     4     5   ar
    25     5     6   ar
    26     6     7   ar
    27     7    36    1
    28    36    37    1
    29    37    38    1
    30    37    39    1
    31     7     8   ar
    32     8     9   ar
    33    16    17   ar
    34    17    18   ar
    35    18    10   ar
    36    18    13    1
    37     9     1   ar
    38     9     4   ar
    39    20    23    1
    40    14    19    1
    41    31    32    1
    42    34    35    1
@<TRIPOS>MOLECULE
*****
 39 42 0 0 0
SMALL
GASTEIGER

@<TRIPOS>ATOM
      1 C         140.8479  142.0139  165.9050 C.ar    1  UNL1        0.1214
      2 N         140.3531  141.8748  167.3142 N.ar    1  UNL1       -0.1677
      3 N         141.0347  140.6890  167.9300 N.ar    1  UNL1       -0.2508
      4 C         141.9509  140.0952  166.9013 C.ar    1  UNL1        0.0796
      5 C         142.8754  138.9147  166.9425 C.ar    1  UNL1        0.0219
      6 C         143.6843  138.5530  165.7324 C.ar    1  UNL1        0.0386
      7 C         143.5689  139.3718  164.4808 C.ar    1  UNL1        0.1444
      8 C         142.6444  140.5523  164.4396 C.ar    1  UNL1        0.0402
      9 C         141.8354  140.9140  165.6498 C.ar    1  UNL1        0.0412
     10 C         140.9386  144.3552  161.1161 C.ar    1  UNL1        0.0930
     11 C         140.1971  145.5704  160.6434 C.ar    1  UNL1        0.1067
     12 N         139.3640  146.0774  161.7831 N.ar    1  UNL1       -0.2252
     13 C         139.5906  145.1756  162.9601 C.ar    1  UNL1        0.1586
     14 N         139.0365  145.1861  164.3540 N.ar    1  UNL1       -0.3349
     15 C         139.4557  144.1322  165.3356 C.ar    1  UNL1        0.0945
     16 C         140.4288  143.0678  164.9233 C.ar    1  UNL1        0.1176
     17 N         140.9829  143.0573  163.5295 N.ar    1  UNL1       -0.2390
     18 C         140.5638  144.1112  162.5479 C.ar    1  UNL1        0.1210
     19 H         138.3978  145.8847  164.6245 H       1  UNL1        0.1675
     20 N         142.0593  142.0690  160.5989 N.am    1  UNL1       -0.3039
     21 C         141.8882  143.5290  160.3002 C.2     1  UNL1        0.2488
     22 O         142.6667  144.1627  159.1857 O.2     1  UNL1       -0.2700
     23 H         141.5483  141.6530  161.3304 H       1  UNL1        0.1496
     24 C         144.1342  141.6377  160.6930 C.3     1  UNL1        0.0196
     25 C         143.0089  141.2428  159.7830 C.3     1  UNL1        0.0572
     26 C         141.8837  140.8479  158.8732 C.3     1  UNL1        0.0196
     27 C         143.9585  140.4167  158.9672 C.3     1  UNL1        0.0196
     28 C         140.8353  140.1854  169.3288 C.3     1  UNL1        0.1300
     29 C         141.5585  140.8363  170.4704 C.3     1  UNL1        0.0582
     30 C         143.0508  140.9821  170.4273 C.3     1  UNL1        0.1417
     31 O         143.9229  139.9765  171.1188 O.3     1  UNL1       -0.3818
     32 H         143.3674  139.3031  171.5416 H       1  UNL1        0.2104
     33 C         143.6708  142.1336  169.6927 C.3     1  UNL1        0.1663
     34 O         144.8075  142.8927  170.3106 O.3     1  UNL1       -0.3795
     35 H         144.4941  143.3558  171.1032 H       1  UNL1        0.2105
     36 O         144.3779  139.0100  163.2707 O.3     1  UNL1       -0.4236
     37 C         143.7266  138.3096  162.1150 C.3     1  UNL1        0.5087
     38 F         144.4882  137.2772  161.3380 F       1  UNL1       -0.1550
     39 F         142.3135  138.6417  161.7366 F       1  UNL1       -0.1550
@<TRIPOS>BOND
     1    24    25    1
     2    25    26    1
     3    25    27    1
     4    25    20    1
     5    20    21   am
     6    21    22    2
     7    21    10    1
     8    10    11   ar
     9    11    12   ar
    10    12    13   ar
    11    13    14   ar
    12    14    15   ar
    13    15    16   ar
    14    16     1    1
    15     1     2   ar
    16     2     3   ar
    17     3    28    1
    18    28    29    1
    19    29    30    1
    20    30    31    1
    21    30    33    1
    22    33    34    1
    23     3     4   ar
    24     4     5   ar
    25     5     6   ar
    26     6     7   ar
    27     7    36    1
    28    36    37    1
    29    37    38    1
    30    37    39    1
    31     7     8   ar
    32     8     9   ar
    33    16    17   ar
    34    17    18   ar
    35    18    10   ar
    36    18    13    1
    37     9     1   ar
    38     9     4   ar
    39    20    23    1
    40    14    19    1
    41    31    32    1
    42    34    35    1
@<TRIPOS>MOLECULE
*****
 39 42 0 0 0
SMALL
GASTEIGER

@<TRIPOS>ATOM
      1 C         141.4755  142.2506  165.7020 C.ar    1  UNL1        0.1214
      2 N         141.6795  142.4554  167.1739 N.ar    1  UNL1       -0.1677
      3 N         142.2959  141.2080  167.7345 N.ar    1  UNL1       -0.2508
      4 C         142.4728  140.2323  166.6089 C.ar    1  UNL1        0.0796
      5 C         143.0301  138.8404  166.5655 C.ar    1  UNL1        0.0219
      6 C         143.0804  138.0929  165.2661 C.ar    1  UNL1        0.0386
      7 C         142.5734  138.7372  164.0099 C.ar    1  UNL1        0.1444
      8 C         142.0161  140.1292  164.0534 C.ar    1  UNL1        0.0402
      9 C         141.9658  140.8767  165.3528 C.ar    1  UNL1        0.0412
     10 C         141.0030  144.5376  160.9093 C.ar    1  UNL1        0.0930
     11 C         140.1098  145.6648  160.4833 C.ar    1  UNL1        0.1067
     12 N         139.3067  146.0954  161.6748 N.ar    1  UNL1       -0.2252
     13 C         139.7036  145.2344  162.8371 C.ar    1  UNL1        0.1586
     14 N         139.2459  145.2026  164.2652 N.ar    1  UNL1       -0.3349
     15 C         139.8365  144.2081  165.2201 C.ar    1  UNL1        0.0945
     16 C         140.8849  143.2452  164.7470 C.ar    1  UNL1        0.1176
     17 N         141.3426  143.2770  163.3189 N.ar    1  UNL1       -0.2390
     18 C         140.7520  144.2715  162.3640 C.ar    1  UNL1        0.1210
     19 H         138.5578  145.8346  164.5757 H       1  UNL1        0.1675
     20 N         142.3659  142.3941  160.3629 N.am    1  UNL1       -0.3039
     21 C         141.9764  143.8049  160.0342 C.2     1  UNL1        0.2488
     22 O         142.5603  144.4830  158.8304 O.2     1  UNL1       -0.2700
     23 H         141.9827  141.9490  161.1530 H       1  UNL1        0.1496
     24 C         142.1980  141.0210  158.7547 C.3     1  UNL1        0.0196
     25 C         143.3393  141.6615  159.4878 C.3     1  UNL1        0.0572
     26 C         144.4805  142.3020  160.2210 C.3     1  UNL1        0.0196
     27 C         144.3126  140.9289  158.6127 C.3     1  UNL1        0.0196
     28 C         142.6696  140.9769  169.1686 C.3     1  UNL1        0.1300
     29 C         141.9439  139.9412  169.9752 C.3     1  UNL1        0.0582
     30 C         140.6507  140.2879  170.6516 C.3     1  UNL1        0.1417
     31 O         140.6181  140.5210  172.1330 O.3     1  UNL1       -0.3818
     32 H         141.5099  140.4092  172.4976 H       1  UNL1        0.2104
     33 C         139.3902  140.4015  169.8464 C.3     1  UNL1        0.1663
     34 O         138.0885  139.9251  170.4198 O.3     1  UNL1       -0.3795
     35 H         138.1199  138.9628  170.5374 H       1  UNL1        0.2105
     36 O         142.6238  137.9896  162.7106 O.3     1  UNL1       -0.4236
     37 C         143.5018  138.4791  161.5972 C.3     1  UNL1        0.5087
     38 F         143.3020  137.9642  160.2027 F       1  UNL1       -0.1550
     39 F         144.5798  139.4837  161.8785 F       1  UNL1       -0.1550
@<TRIPOS>BOND
     1    24    25    1
     2    25    26    1
     3    25    27    1
     4    25    20    1
     5    20    21   am
     6    21    22    2
     7    21    10    1
     8    10    11   ar
     9    11    12   ar
    10    12    13   ar
    11    13    14   ar
    12    14    15   ar
    13    15    16   ar
    14    16     1    1
    15     1     2   ar
    16     2     3   ar
    17     3    28    1
    18    28    29    1
    19    29    30    1
    20    30    31    1
    21    30    33    1
    22    33    34    1
    23     3     4   ar
    24     4     5   ar
    25     5     6   ar
    26     6     7   ar
    27     7    36    1
    28    36    37    1
    29    37    38    1
    30    37    39    1
    31     7     8   ar
    32     8     9   ar
    33    16    17   ar
    34    17    18   ar
    35    18    10   ar
    36    18    13    1
    37     9     1   ar
    38     9     4   ar
    39    20    23    1
    40    14    19    1
    41    31    32    1
    42    34    35    1
@<TRIPOS>MOLECULE
*****
 39 42 0 0 0
SMALL
GASTEIGER

@<TRIPOS>ATOM
      1 C         141.2091  142.0138  165.1164 C.ar    1  UNL1        0.1214
      2 N         141.7269  142.1659  166.5159 N.ar    1  UNL1       -0.1677
      3 N         142.1233  140.8076  167.0138 N.ar    1  UNL1       -0.2508
      4 C         141.8505  139.8160  165.9218 C.ar    1  UNL1        0.0796
      5 C         142.0435  138.3305  165.8437 C.ar    1  UNL1        0.0219
      6 C         141.6716  137.5905  164.5932 C.ar    1  UNL1        0.0386
      7 C         141.1067  138.3360  163.4205 C.ar    1  UNL1        0.1444
      8 C         140.9136  139.8215  163.4985 C.ar    1  UNL1        0.0402
      9 C         141.2855  140.5615  164.7492 C.ar    1  UNL1        0.0412
     10 C         141.0110  144.7321  160.5343 C.ar    1  UNL1        0.0930
     11 C         140.1945  145.9415  160.1868 C.ar    1  UNL1        0.1067
     12 N         139.3799  146.3122  161.3905 N.ar    1  UNL1       -0.2252
     13 C         139.6929  145.3320  162.4819 C.ar    1  UNL1        0.1586
     14 N         139.1902  145.2025  163.8892 N.ar    1  UNL1       -0.3349
     15 C         139.6956  144.0965  164.7673 C.ar    1  UNL1        0.0945
     16 C         140.7037  143.1199  164.2382 C.ar    1  UNL1        0.1176
     17 N         141.2064  143.2494  162.8309 N.ar    1  UNL1       -0.2390
     18 C         140.7010  144.3554  161.9528 C.ar    1  UNL1        0.1210
     19 H         138.5286  145.8435  164.2365 H       1  UNL1        0.1675
     20 N         142.3472  142.5977  159.8948 N.am    1  UNL1       -0.3039
     21 C         141.9693  144.0238  159.6233 C.2     1  UNL1        0.2488
     22 O         142.5497  144.7413  158.4409 O.2     1  UNL1       -0.2700
     23 H         141.9663  142.1267  160.6708 H       1  UNL1        0.1496
     24 C         142.1543  141.3865  158.1640 C.3     1  UNL1        0.0196
     25 C         143.3055  141.8893  158.9838 C.3     1  UNL1        0.0572
     26 C         144.4566  142.3922  159.8036 C.3     1  UNL1        0.0196
     27 C         144.2637  141.1810  158.0728 C.3     1  UNL1        0.0196
     28 C         142.6925  140.4956  168.3660 C.3     1  UNL1        0.1300
     29 C         141.9558  139.5782  169.2964 C.3     1  UNL1        0.0582
     30 C         141.1681  140.1445  170.4403 C.3     1  UNL1        0.1417
     31 O         140.1101  139.3152  171.1059 O.3     1  UNL1       -0.3818
     32 H         140.0642  138.4457  170.6782 H       1  UNL1        0.2104
     33 C         141.4383  141.5402  170.9188 C.3     1  UNL1        0.1663
     34 O         140.5462  142.1656  171.9499 O.3     1  UNL1       -0.3795
     35 H         139.6594  142.2906  171.5772 H       1  UNL1        0.2105
     36 O         140.7348  137.5960  162.1699 O.3     1  UNL1       -0.4236
     37 C         139.5140  137.9971  161.3960 C.3     1  UNL1        0.5087
     38 F         138.1634  137.9458  162.0462 F       1  UNL1       -0.1550
     39 F         139.6441  138.4496  159.9717 F       1  UNL1       -0.1550
@<TRIPOS>BOND
     1    24    25    1
     2    25    26    1
     3    25    27    1
     4    25    20    1
     5    20    21   am
     6    21    22    2
     7    21    10    1
     8    10    11   ar
     9    11    12   ar
    10    12    13   ar
    11    13    14   ar
    12    14    15   ar
    13    15    16   ar
    14    16     1    1
    15     1     2   ar
    16     2     3   ar
    17     3    28    1
    18    28    29    1
    19    29    30    1
    20    30    31    1
    21    30    33    1
    22    33    34    1
    23     3     4   ar
    24     4     5   ar
    25     5     6   ar
    26     6     7   ar
    27     7    36    1
    28    36    37    1
    29    37    38    1
    30    37    39    1
    31     7     8   ar
    32     8     9   ar
    33    16    17   ar
    34    17    18   ar
    35    18    10   ar
    36    18    13    1
    37     9     1   ar
    38     9     4   ar
    39    20    23    1
    40    14    19    1
    41    31    32    1
    42    34    35    1
@<TRIPOS>MOLECULE
*****
 39 42 0 0 0
SMALL
GASTEIGER

@<TRIPOS>ATOM
      1 C         139.3744  141.7805  165.4098 C.ar    1  UNL1        0.1214
      2 N         138.6841  140.4823  165.1129 N.ar    1  UNL1       -0.1677
      3 N         138.7439  139.6325  166.3476 N.ar    1  UNL1       -0.2508
      4 C         139.4711  140.4056  167.4075 C.ar    1  UNL1        0.0796
      5 C         139.8288  140.0723  168.8256 C.ar    1  UNL1        0.0219
      6 C         140.5762  141.0664  169.6640 C.ar    1  UNL1        0.0386
      7 C         140.9659  142.3940  169.0845 C.ar    1  UNL1        0.1444
      8 C         140.6082  142.7273  167.6664 C.ar    1  UNL1        0.0402
      9 C         139.8608  141.7331  166.8279 C.ar    1  UNL1        0.0412
     10 C         141.2078  143.9882  160.9166 C.ar    1  UNL1        0.0930
     11 C         141.0417  145.3927  160.4169 C.ar    1  UNL1        0.1067
     12 N         140.2301  146.1505  161.4254 N.ar    1  UNL1       -0.2252
     13 C         139.8946  145.2144  162.5484 C.ar    1  UNL1        0.1586
     14 N         139.1169  145.4062  163.8166 N.ar    1  UNL1       -0.3349
     15 C         138.9435  144.2615  164.7704 C.ar    1  UNL1        0.0945
     16 C         139.5478  142.9251  164.4559 C.ar    1  UNL1        0.1176
     17 N         140.3255  142.7333  163.1877 N.ar    1  UNL1       -0.2390
     18 C         140.4989  143.8779  162.2339 C.ar    1  UNL1        0.1210
     19 H         138.7203  146.2833  164.0229 H       1  UNL1        0.1675
     20 N         141.7583  141.4630  160.6507 N.am    1  UNL1       -0.3039
     21 C         141.9522  142.8872  160.2212 C.2     1  UNL1        0.2488
     22 O         142.8904  143.2101  159.0963 O.2     1  UNL1       -0.2700
     23 H         141.1426  141.2510  161.3890 H       1  UNL1        0.1496
     24 C         143.6358  140.5148  160.9262 C.3     1  UNL1        0.0196
     25 C         142.5027  140.3620  159.9552 C.3     1  UNL1        0.0572
     26 C         141.3696  140.2093  158.9842 C.3     1  UNL1        0.0196
     27 C         143.2471  139.2610  159.2598 C.3     1  UNL1        0.0196
     28 C         138.1761  138.2521  166.4962 C.3     1  UNL1        0.1300
     29 C         138.4890  137.1986  165.4753 C.3     1  UNL1        0.0582
     30 C         139.2470  137.5602  164.2325 C.3     1  UNL1        0.1417
     31 O         138.5339  138.2002  163.0785 O.3     1  UNL1       -0.3818
     32 H         137.5954  138.3088  163.2984 H       1  UNL1        0.2104
     33 C         140.7183  137.2818  164.1438 C.3     1  UNL1        0.1663
     34 O         141.2981  136.7051  162.8863 O.3     1  UNL1       -0.3795
     35 H         140.9548  135.8075  162.7540 H       1  UNL1        0.2105
     36 O         141.7133  143.3880  169.9230 O.3     1  UNL1       -0.4236
     37 C         143.1156  143.0919  170.3658 C.3     1  UNL1        0.5087
     38 F         143.8324  144.0459  171.2744 F       1  UNL1       -0.1550
     39 F         143.8009  141.8415  169.8998 F       1  UNL1       -0.1550
@<TRIPOS>BOND
     1    24    25    1
     2    25    26    1
     3    25    27    1
     4    25    20    1
     5    20    21   am
     6    21    22    2
     7    21    10    1
     8    10    11   ar
     9    11    12   ar
    10    12    13   ar
    11    13    14   ar
    12    14    15   ar
    13    15    16   ar
    14    16     1    1
    15     1     2   ar
    16     2     3   ar
    17     3    28    1
    18    28    29    1
    19    29    30    1
    20    30    31    1
    21    30    33    1
    22    33    34    1
    23     3     4   ar
    24     4     5   ar
    25     5     6   ar
    26     6     7   ar
    27     7    36    1
    28    36    37    1
    29    37    38    1
    30    37    39    1
    31     7     8   ar
    32     8     9   ar
    33    16    17   ar
    34    17    18   ar
    35    18    10   ar
    36    18    13    1
    37     9     1   ar
    38     9     4   ar
    39    20    23    1
    40    14    19    1
    41    31    32    1
    42    34    35    1
@<TRIPOS>MOLECULE
*****
 39 42 0 0 0
SMALL
GASTEIGER

@<TRIPOS>ATOM
      1 C         143.0962  139.2779  167.3019 C.ar    1  UNL1        0.1214
      2 N         143.5474  138.0621  168.0558 N.ar    1  UNL1       -0.1677
      3 N         143.1254  138.2208  169.4865 N.ar    1  UNL1       -0.2508
      4 C         142.4135  139.5347  169.6168 C.ar    1  UNL1        0.0796
      5 C         141.7793  140.2206  170.7903 C.ar    1  UNL1        0.0219
      6 C         141.1272  141.5597  170.6139 C.ar    1  UNL1        0.0386
      7 C         141.1091  142.2131  169.2637 C.ar    1  UNL1        0.1444
      8 C         141.7433  141.5272  168.0901 C.ar    1  UNL1        0.0402
      9 C         142.3955  140.1880  168.2666 C.ar    1  UNL1        0.0412
     10 C         141.7890  141.4812  162.6264 C.ar    1  UNL1        0.0930
     11 C         142.4836  141.3701  161.3016 C.ar    1  UNL1        0.1067
     12 N         143.6853  140.4905  161.4806 N.ar    1  UNL1       -0.2252
     13 C         143.7334  140.0579  162.9161 C.ar    1  UNL1        0.1586
     14 N         144.6930  139.1856  163.6699 N.ar    1  UNL1       -0.3349
     15 C         144.4806  138.9256  165.1318 C.ar    1  UNL1        0.0945
     16 C         143.3086  139.5379  165.8399 C.ar    1  UNL1        0.1176
     17 N         142.3490  140.4102  165.0862 N.ar    1  UNL1       -0.2390
     18 C         142.5614  140.6702  163.6242 C.ar    1  UNL1        0.1210
     19 H         145.4623  138.7838  163.2051 H       1  UNL1        0.1675
     20 N         140.1720  142.6120  164.3167 N.am    1  UNL1       -0.3039
     21 C         140.5410  142.2655  162.9046 C.2     1  UNL1        0.2488
     22 O         139.6620  142.7035  161.7709 O.2     1  UNL1       -0.2700
     23 H         140.7490  142.3245  165.0609 H       1  UNL1        0.1496
     24 C         138.1341  142.1221  164.6431 C.3     1  UNL1        0.0196
     25 C         138.9241  143.3963  164.5949 C.3     1  UNL1        0.0572
     26 C         139.7141  144.6705  164.5467 C.3     1  UNL1        0.0196
     27 C         137.6762  144.1806  164.8731 C.3     1  UNL1        0.0196
     28 C         143.3721  137.2381  170.5926 C.3     1  UNL1        0.1300
     29 C         144.5418  136.3021  170.5173 C.3     1  UNL1        0.0582
     30 C         145.2393  135.8710  171.7733 C.3     1  UNL1        0.1417
     31 O         144.5537  134.9420  172.7309 O.3     1  UNL1       -0.3818
     32 H         143.6735  134.7184  172.3902 H       1  UNL1        0.2104
     33 C         146.6225  136.3688  172.0716 C.3     1  UNL1        0.1663
     34 O         147.4591  135.6818  173.1101 O.3     1  UNL1       -0.3795
     35 H         147.0525  135.7997  173.9828 H       1  UNL1        0.2105
     36 O         140.4569  143.5523  169.0873 O.3     1  UNL1       -0.4236
     37 C         139.8828  144.2689  170.2734 C.3     1  UNL1        0.5087
     38 F         139.0042  143.5332  171.2412 F       1  UNL1       -0.1550
     39 F         140.1874  145.7215  170.4917 F       1  UNL1       -0.1550
@<TRIPOS>BOND
     1    24    25    1
     2    25    26    1
     3    25    27    1
     4    25    20    1
     5    20    21   am
     6    21    22    2
     7    21    10    1
     8    10    11   ar
     9    11    12   ar
    10    12    13   ar
    11    13    14   ar
    12    14    15   ar
    13    15    16   ar
    14    16     1    1
    15     1     2   ar
    16     2     3   ar
    17     3    28    1
    18    28    29    1
    19    29    30    1
    20    30    31    1
    21    30    33    1
    22    33    34    1
    23     3     4   ar
    24     4     5   ar
    25     5     6   ar
    26     6     7   ar
    27     7    36    1
    28    36    37    1
    29    37    38    1
    30    37    39    1
    31     7     8   ar
    32     8     9   ar
    33    16    17   ar
    34    17    18   ar
    35    18    10   ar
    36    18    13    1
    37     9     1   ar
    38     9     4   ar
    39    20    23    1
    40    14    19    1
    41    31    32    1
    42    34    35    1
@<TRIPOS>MOLECULE
*****
 39 42 0 0 0
SMALL
GASTEIGER

@<TRIPOS>ATOM
      1 C         140.5461  142.6931  164.9643 C.ar    1  UNL1        0.1214
      2 N         140.7910  143.2573  166.3324 N.ar    1  UNL1       -0.1677
      3 N         140.3420  142.2411  167.3401 N.ar    1  UNL1       -0.2508
      4 C         139.8195  141.0487  166.5948 C.ar    1  UNL1        0.0796
      5 C         139.2451  139.7447  167.0635 C.ar    1  UNL1        0.0219
      6 C         138.7970  138.7202  166.0639 C.ar    1  UNL1        0.0386
      7 C         138.9232  138.9995  164.5955 C.ar    1  UNL1        0.1444
      8 C         139.4975  140.3035  164.1268 C.ar    1  UNL1        0.0402
      9 C         139.9457  141.3281  165.1265 C.ar    1  UNL1        0.0412
     10 C         142.2847  142.7587  159.9247 C.ar    1  UNL1        0.0930
     11 C         142.3638  143.9101  158.9666 C.ar    1  UNL1        0.1067
     12 N         141.8501  145.1326  159.6677 N.ar    1  UNL1       -0.2252
     13 C         141.4535  144.7367  161.0591 C.ar    1  UNL1        0.1586
     14 N         140.8824  145.5227  162.2020 N.ar    1  UNL1       -0.3349
     15 C         140.5800  144.8415  163.5036 C.ar    1  UNL1        0.0945
     16 C         140.8486  143.3743  163.6625 C.ar    1  UNL1        0.1176
     17 N         141.4196  142.5883  162.5197 N.ar    1  UNL1       -0.2390
     18 C         141.7221  143.2695  161.2180 C.ar    1  UNL1        0.1210
     19 H         140.7061  146.4856  162.0977 H       1  UNL1        0.1675
     20 N         142.1528  140.2227  160.4743 N.am    1  UNL1       -0.3039
     21 C         142.6960  141.3446  159.6397 C.2     1  UNL1        0.2488
     22 O         143.6505  141.0523  158.5202 O.2     1  UNL1       -0.2700
     23 H         141.5263  140.4146  161.2091 H       1  UNL1        0.1496
     24 C         143.7124  138.9503  161.1440 C.3     1  UNL1        0.0196
     25 C         142.5641  138.8087  160.1893 C.3     1  UNL1        0.0572
     26 C         141.4157  138.6671  159.2346 C.3     1  UNL1        0.0196
     27 C         142.9754  137.3947  159.9043 C.3     1  UNL1        0.0196
     28 C         140.4044  142.3908  168.8313 C.3     1  UNL1        0.1300
     29 C         141.7109  142.2206  169.5481 C.3     1  UNL1        0.0582
     30 C         142.0642  140.8971  170.1593 C.3     1  UNL1        0.1417
     31 O         143.4670  140.6347  170.6210 O.3     1  UNL1       -0.3818
     32 H         144.0146  141.4175  170.4527 H       1  UNL1        0.2104
     33 C         141.0145  139.8361  170.3089 C.3     1  UNL1        0.1663
     34 O         140.0618  139.8815  171.4667 O.3     1  UNL1       -0.3795
     35 H         140.5505  139.7439  172.2932 H       1  UNL1        0.2105
     36 O         138.4750  137.9748  163.5959 O.3     1  UNL1       -0.4236
     37 C         139.2473  137.7790  162.3250 C.3     1  UNL1        0.5087
     38 F         140.6527  137.2572  162.3741 F       1  UNL1       -0.1550
     39 F         138.6140  138.1050  161.0047 F       1  UNL1       -0.1550
@<TRIPOS>BOND
     1    24    25    1
     2    25    26    1
     3    25    27    1
     4    25    20    1
     5    20    21   am
     6    21    22    2
     7    21    10    1
     8    10    11   ar
     9    11    12   ar
    10    12    13   ar
    11    13    14   ar
    12    14    15   ar
    13    15    16   ar
    14    16     1    1
    15     1     2   ar
    16     2     3   ar
    17     3    28    1
    18    28    29    1
    19    29    30    1
    20    30    31    1
    21    30    33    1
    22    33    34    1
    23     3     4   ar
    24     4     5   ar
    25     5     6   ar
    26     6     7   ar
    27     7    36    1
    28    36    37    1
    29    37    38    1
    30    37    39    1
    31     7     8   ar
    32     8     9   ar
    33    16    17   ar
    34    17    18   ar
    35    18    10   ar
    36    18    13    1
    37     9     1   ar
    38     9     4   ar
    39    20    23    1
    40    14    19    1
    41    31    32    1
    42    34    35    1
@<TRIPOS>MOLECULE
*****
 39 42 0 0 0
SMALL
GASTEIGER

@<TRIPOS>ATOM
      1 C         142.6203  141.1593  166.9949 C.ar    1  UNL1        0.1214
      2 N         143.5563  142.0113  167.7998 N.ar    1  UNL1       -0.1677
      3 N         142.9546  142.2032  169.1603 N.ar    1  UNL1       -0.2508
      4 C         141.6466  141.4698  169.1963 C.ar    1  UNL1        0.0796
      5 C         140.6170  141.3060  170.2747 C.ar    1  UNL1        0.0219
      6 C         139.3809  140.4972  170.0149 C.ar    1  UNL1        0.0386
      7 C         139.1742  139.8520  168.6766 C.ar    1  UNL1        0.1444
      8 C         140.2038  140.0157  167.5982 C.ar    1  UNL1        0.0402
      9 C         141.4400  140.8246  167.8580 C.ar    1  UNL1        0.0412
     10 C         142.5499  141.9299  161.7200 C.ar    1  UNL1        0.0930
     11 C         142.9239  140.9806  160.6205 C.ar    1  UNL1        0.1067
     12 N         143.3527  139.6883  161.2499 N.ar    1  UNL1       -0.2252
     13 C         143.2436  139.8390  162.7384 C.ar    1  UNL1        0.1586
     14 N         143.5320  138.8936  163.8667 N.ar    1  UNL1       -0.3349
     15 C         143.3242  139.3337  165.2855 C.ar    1  UNL1        0.0945
     16 C         142.8280  140.7192  165.5760 C.ar    1  UNL1        0.1176
     17 N         142.5397  141.6645  164.4477 N.ar    1  UNL1       -0.2390
     18 C         142.7474  141.2244  163.0289 C.ar    1  UNL1        0.1210
     19 H         143.8577  137.9843  163.6760 H       1  UNL1        0.1675
     20 N         140.5933  143.6333  161.5761 N.am    1  UNL1       -0.3039
     21 C         142.0636  143.3377  161.5418 C.2     1  UNL1        0.2488
     22 O         143.0474  144.4498  161.3294 O.2     1  UNL1       -0.2700
     23 H         139.9476  142.9034  161.7155 H       1  UNL1        0.1496
     24 C         140.0766  145.2189  162.8871 C.3     1  UNL1        0.0196
     25 C         140.1071  145.0411  161.3980 C.3     1  UNL1        0.0572
     26 C         140.1376  144.8632  159.9089 C.3     1  UNL1        0.0196
     27 C         139.6208  146.4488  161.2199 C.3     1  UNL1        0.0196
     28 C         143.5554  142.9903  170.2871 C.3     1  UNL1        0.1300
     29 C         145.0452  143.1256  170.3966 C.3     1  UNL1        0.0582
     30 C         145.6430  144.3513  171.0213 C.3     1  UNL1        0.1417
     31 O         144.7549  145.3734  171.6667 O.3     1  UNL1       -0.3818
     32 H         143.8300  145.0906  171.5932 H       1  UNL1        0.2104
     33 C         147.1290  144.5549  171.0006 C.3     1  UNL1        0.1663
     34 O         147.8457  144.9769  172.2490 O.3     1  UNL1       -0.3795
     35 H         147.5629  145.8708  172.4976 H       1  UNL1        0.2105
     36 O         137.9380  139.0431  168.4169 O.3     1  UNL1       -0.4236
     37 C         137.6797  138.4866  167.0480 C.3     1  UNL1        0.5087
     38 F         137.5792  139.4095  165.8699 F       1  UNL1       -0.1550
     39 F         137.5219  137.0071  166.8575 F       1  UNL1       -0.1550
@<TRIPOS>BOND
     1    24    25    1
     2    25    26    1
     3    25    27    1
     4    25    20    1
     5    20    21   am
     6    21    22    2
     7    21    10    1
     8    10    11   ar
     9    11    12   ar
    10    12    13   ar
    11    13    14   ar
    12    14    15   ar
    13    15    16   ar
    14    16     1    1
    15     1     2   ar
    16     2     3   ar
    17     3    28    1
    18    28    29    1
    19    29    30    1
    20    30    31    1
    21    30    33    1
    22    33    34    1
    23     3     4   ar
    24     4     5   ar
    25     5     6   ar
    26     6     7   ar
    27     7    36    1
    28    36    37    1
    29    37    38    1
    30    37    39    1
    31     7     8   ar
    32     8     9   ar
    33    16    17   ar
    34    17    18   ar
    35    18    10   ar
    36    18    13    1
    37     9     1   ar
    38     9     4   ar
    39    20    23    1
    40    14    19    1
    41    31    32    1
    42    34    35    1
@<TRIPOS>MOLECULE
*****
 39 42 0 0 0
SMALL
GASTEIGER

@<TRIPOS>ATOM
      1 C         141.6829  140.3431  164.3413 C.ar    1  UNL1        0.1214
      2 N         142.0214  139.8914  165.7311 N.ar    1  UNL1       -0.1677
      3 N         141.4613  140.8956  166.6943 N.ar    1  UNL1       -0.2508
      4 C         140.7765  141.9680  165.8997 C.ar    1  UNL1        0.0796
      5 C         140.0460  143.2113  166.3126 C.ar    1  UNL1        0.0219
      6 C         139.4524  144.1131  165.2713 C.ar    1  UNL1        0.0386
      7 C         139.5894  143.7716  163.8170 C.ar    1  UNL1        0.1444
      8 C         140.3199  142.5283  163.4042 C.ar    1  UNL1        0.0402
      9 C         140.9135  141.6265  164.4456 C.ar    1  UNL1        0.0412
     10 C         142.0672  139.9947  159.0352 C.ar    1  UNL1        0.0930
     11 C         142.5985  138.8697  158.1974 C.ar    1  UNL1        0.1067
     12 N         143.0406  137.7731  159.1205 N.ar    1  UNL1       -0.2252
     13 C         142.7825  138.2205  160.5288 C.ar    1  UNL1        0.1586
     14 N         143.0176  137.5550  161.8523 N.ar    1  UNL1       -0.3349
     15 C         142.6511  138.2625  163.1231 C.ar    1  UNL1        0.0945
     16 C         142.0494  139.6356  163.0704 C.ar    1  UNL1        0.1176
     17 N         141.8144  140.3011  161.7469 N.ar    1  UNL1       -0.2390
     18 C         142.1809  139.5935  160.4761 C.ar    1  UNL1        0.1210
     19 H         143.4125  136.6538  161.8869 H       1  UNL1        0.1675
     20 N         141.3819  142.4670  159.4462 N.am    1  UNL1       -0.3039
     21 C         141.5185  141.2931  158.5222 C.2     1  UNL1        0.2488
     22 O         141.1063  141.4178  157.0854 O.2     1  UNL1       -0.2700
     23 H         141.6525  142.3852  160.3892 H       1  UNL1        0.1496
     24 C         142.2256  144.2341  158.6304 C.3     1  UNL1        0.0196
     25 C         140.8332  143.7653  158.9332 C.3     1  UNL1        0.0572
     26 C         139.4409  143.2965  159.2360 C.3     1  UNL1        0.0196
     27 C         140.2845  145.0636  158.4202 C.3     1  UNL1        0.0196
     28 C         141.5672  140.8376  168.1894 C.3     1  UNL1        0.1300
     29 C         140.4954  140.1611  168.9915 C.3     1  UNL1        0.0582
     30 C         140.3463  140.4668  170.4524 C.3     1  UNL1        0.1417
     31 O         139.8185  139.4195  171.3877 O.3     1  UNL1       -0.3818
     32 H         139.6240  138.6100  170.8901 H       1  UNL1        0.2104
     33 C         140.7249  141.8197  170.9780 C.3     1  UNL1        0.1663
     34 O         141.9237  141.9704  171.8671 O.3     1  UNL1       -0.3795
     35 H         141.7644  141.5092  172.7055 H       1  UNL1        0.2105
     36 O         138.9958  144.6735  162.7758 O.3     1  UNL1       -0.4236
     37 C         139.8704  145.6413  162.0351 C.3     1  UNL1        0.5087
     38 F         139.2757  146.8785  161.4305 F       1  UNL1       -0.1550
     39 F         141.3397  145.3717  161.8990 F       1  UNL1       -0.1550
@<TRIPOS>BOND
     1    24    25    1
     2    25    26    1
     3    25    27    1
     4    25    20    1
     5    20    21   am
     6    21    22    2
     7    21    10    1
     8    10    11   ar
     9    11    12   ar
    10    12    13   ar
    11    13    14   ar
    12    14    15   ar
    13    15    16   ar
    14    16     1    1
    15     1     2   ar
    16     2     3   ar
    17     3    28    1
    18    28    29    1
    19    29    30    1
    20    30    31    1
    21    30    33    1
    22    33    34    1
    23     3     4   ar
    24     4     5   ar
    25     5     6   ar
    26     6     7   ar
    27     7    36    1
    28    36    37    1
    29    37    38    1
    30    37    39    1
    31     7     8   ar
    32     8     9   ar
    33    16    17   ar
    34    17    18   ar
    35    18    10   ar
    36    18    13    1
    37     9     1   ar
    38     9     4   ar
    39    20    23    1
    40    14    19    1
    41    31    32    1
    42    34    35    1
