@<TRIPOS>MOLECULE
*****
 34 38 0 0 0
SMALL
GASTEIGER

@<TRIPOS>ATOM
      1 C         138.9530  142.1679  158.5729 C.ar    1  UNL1        0.1769
      2 N         139.2149  140.8428  159.2253 N.ar    1  UNL1       -0.2086
      3 C         138.8559  140.9618  160.6768 C.ar    1  UNL1        0.1695
      4 C         138.9070  139.9773  161.8073 C.ar    1  UNL1        0.0567
      5 C         139.3908  138.5787  161.5626 C.ar    1  UNL1        0.0048
      6 C         139.4419  137.5942  162.6931 C.ar    1  UNL1        0.0033
      7 C         139.0092  138.0083  164.0684 C.ar    1  UNL1        0.0385
      8 C         138.5254  139.4068  164.3131 C.ar    1  UNL1        0.1564
      9 C         138.4743  140.3913  163.1826 C.ar    1  UNL1        0.1209
     10 N         137.9905  141.7900  163.4273 N.ar    1  UNL1       -0.2108
     11 C         137.9394  142.7745  162.2968 C.ar    1  UNL1        0.2163
     12 N         137.4556  144.1731  162.5415 N.pl3   1  UNL1       -0.3274
     13 N         138.3721  142.3604  160.9215 N.ar    1  UNL1       -0.1813
     14 N         138.4321  143.1058  159.6212 N.ar    1  UNL1       -0.1451
     15 H         137.1716  144.4449  163.4441 H       1  UNL1        0.1452
     16 H         137.4221  144.8193  161.7995 H       1  UNL1        0.1452
     17 O         138.0927  139.8209  165.6884 O.3     1  UNL1       -0.4699
     18 C         137.8485  138.7820  166.7423 C.3     1  UNL1        0.2525
     19 C         139.1734  142.4973  157.1261 C.3     1  UNL1        0.1408
     20 N         139.1513  146.7869  155.7665 N.pl3   1  UNL1       -0.3047
     21 C         140.1831  146.3166  156.7485 C.3     1  UNL1        0.1081
     22 C         140.1904  144.8868  157.2017 C.3     1  UNL1        0.0941
     23 N         139.1660  143.9271  156.6729 N.3     1  UNL1       -0.2644
     24 C         138.1342  144.3973  155.6909 C.3     1  UNL1        0.0777
     25 C         137.1098  143.4377  155.1621 C.3     1  UNL1        0.0192
     26 C         138.1268  145.8272  155.2377 C.3     1  UNL1        0.1067
     27 C         139.1293  151.0765  154.4068 C.ar    1  UNL1        0.1388
     28 C         139.7952  150.0270  153.5671 C.ar    1  UNL1        0.0382
     29 C         139.8026  148.5971  154.0203 C.ar    1  UNL1        0.0176
     30 C         139.1440  148.2167  155.3133 C.ar    1  UNL1        0.0481
     31 C         138.4781  149.2663  156.1529 C.ar    1  UNL1        0.0176
     32 C         138.4708  150.6961  155.6997 C.ar    1  UNL1        0.0382
     33 C         138.4327  153.5515  154.7799 C.3     1  UNL1        0.2525
     34 O         139.1220  152.5064  153.9536 O.3     1  UNL1       -0.4714
@<TRIPOS>BOND
     1    33    34    1
     2    34    27    1
     3    27    28   ar
     4    28    29   ar
     5    29    30   ar
     6    30    20    1
     7    20    21    1
     8    21    22    1
     9    22    23    1
    10    23    19    1
    11    19     1    1
    12     1     2   ar
    13     2     3   ar
    14     3     4   ar
    15     4     5   ar
    16     5     6   ar
    17     6     7   ar
    18     7     8   ar
    19     8    17    1
    20    17    18    1
    21     8     9   ar
    22     9    10   ar
    23    10    11   ar
    24    11    12    1
    25    11    13   ar
    26    13    14   ar
    27    23    24    1
    28    24    25    1
    29    24    26    1
    30    30    31   ar
    31    31    32   ar
    32    32    27   ar
    33    26    20    1
    34    14     1   ar
    35    13     3   ar
    36     9     4   ar
    37    12    15    1
    38    12    16    1
@<TRIPOS>MOLECULE
*****
 34 38 0 0 0
SMALL
GASTEIGER

@<TRIPOS>ATOM
      1 C         142.2557  137.4014  156.9628 C.ar    1  UNL1        0.1769
      2 N         143.0354  136.2517  157.5286 N.ar    1  UNL1       -0.2086
      3 C         143.0443  135.1514  156.5092 C.ar    1  UNL1        0.1695
      4 C         143.6574  133.7824  156.5155 C.ar    1  UNL1        0.0567
      5 C         144.4317  133.3128  157.7113 C.ar    1  UNL1        0.0048
      6 C         145.0447  131.9439  157.7174 C.ar    1  UNL1        0.0033
      7 C         144.8836  131.0445  156.5278 C.ar    1  UNL1        0.0385
      8 C         144.1094  131.5141  155.3320 C.ar    1  UNL1        0.1564
      9 C         143.4963  132.8830  155.3258 C.ar    1  UNL1        0.1209
     10 N         142.7220  133.3527  154.1300 N.ar    1  UNL1       -0.2108
     11 C         142.1089  134.7216  154.1238 C.ar    1  UNL1        0.2163
     12 N         141.3346  135.1913  152.9280 N.pl3   1  UNL1       -0.3274
     13 N         142.2701  135.6210  155.3134 N.ar    1  UNL1       -0.1813
     14 N         141.7826  137.0116  155.5937 N.ar    1  UNL1       -0.1451
     15 H         141.2288  134.6010  152.1472 H       1  UNL1        0.1452
     16 H         140.9322  136.0898  152.9239 H       1  UNL1        0.1452
     17 O         143.9482  130.6148  154.1424 O.3     1  UNL1       -0.4699
     18 C         143.7646  129.1389  154.3373 C.3     1  UNL1        0.2525
     19 C         141.9947  138.7111  157.6461 C.3     1  UNL1        0.1408
     20 N         140.1120  138.7808  161.7327 N.pl3   1  UNL1       -0.3047
     21 C         139.2546  138.6034  160.5148 C.3     1  UNL1        0.1081
     22 C         139.8821  138.5801  159.1526 C.3     1  UNL1        0.0941
     23 N         141.3672  138.7343  159.0083 N.3     1  UNL1       -0.2644
     24 C         142.2247  138.9118  160.2262 C.3     1  UNL1        0.0777
     25 C         143.7097  139.0660  160.0818 C.3     1  UNL1        0.0192
     26 C         141.5971  138.9351  161.5884 C.3     1  UNL1        0.1067
     27 C         138.2293  138.8506  165.8193 C.ar    1  UNL1        0.1388
     28 C         138.8564  137.5891  165.3039 C.ar    1  UNL1        0.0382
     29 C         139.4840  137.5659  163.9417 C.ar    1  UNL1        0.0176
     30 C         139.4845  138.8041  163.0949 C.ar    1  UNL1        0.0481
     31 C         138.8574  140.0654  163.6104 C.ar    1  UNL1        0.0176
     32 C         138.2299  140.0887  164.9726 C.ar    1  UNL1        0.0382
     33 C         136.8740  137.6659  167.6928 C.3     1  UNL1        0.2525
     34 O         137.6018  138.8738  167.1815 O.3     1  UNL1       -0.4714
@<TRIPOS>BOND
     1    33    34    1
     2    34    27    1
     3    27    28   ar
     4    28    29   ar
     5    29    30   ar
     6    30    20    1
     7    20    21    1
     8    21    22    1
     9    22    23    1
    10    23    19    1
    11    19     1    1
    12     1     2   ar
    13     2     3   ar
    14     3     4   ar
    15     4     5   ar
    16     5     6   ar
    17     6     7   ar
    18     7     8   ar
    19     8    17    1
    20    17    18    1
    21     8     9   ar
    22     9    10   ar
    23    10    11   ar
    24    11    12    1
    25    11    13   ar
    26    13    14   ar
    27    23    24    1
    28    24    25    1
    29    24    26    1
    30    30    31   ar
    31    31    32   ar
    32    32    27   ar
    33    26    20    1
    34    14     1   ar
    35    13     3   ar
    36     9     4   ar
    37    12    15    1
    38    12    16    1
@<TRIPOS>MOLECULE
*****
 34 38 0 0 0
SMALL
GASTEIGER

@<TRIPOS>ATOM
      1 C         140.6773  138.4058  158.4198 C.ar    1  UNL1        0.1769
      2 N         141.3791  138.2407  159.7352 N.ar    1  UNL1       -0.2086
      3 C         140.3867  138.5107  160.8271 C.ar    1  UNL1        0.1695
      4 C         140.5107  138.4971  162.3219 C.ar    1  UNL1        0.0567
      5 C         141.8258  138.1652  162.9624 C.ar    1  UNL1        0.0048
      6 C         141.9498  138.1516  164.4572 C.ar    1  UNL1        0.0033
      7 C         140.7586  138.4701  165.3115 C.ar    1  UNL1        0.0385
      8 C         139.4435  138.8020  164.6710 C.ar    1  UNL1        0.1564
      9 C         139.3196  138.8155  163.1762 C.ar    1  UNL1        0.1209
     10 N         138.0044  139.1475  162.5356 N.ar    1  UNL1       -0.2108
     11 C         137.8805  139.1610  161.0409 C.ar    1  UNL1        0.2163
     12 N         136.5653  139.4930  160.4003 N.pl3   1  UNL1       -0.3274
     13 N         139.0716  138.8426  160.1866 N.ar    1  UNL1       -0.1813
     14 N         139.2512  138.7778  158.6988 N.ar    1  UNL1       -0.1451
     15 H         135.7835  139.7020  160.9610 H       1  UNL1        0.1452
     16 H         136.4839  139.5019  159.4192 H       1  UNL1        0.1452
     17 O         138.2524  139.1204  165.5253 O.3     1  UNL1       -0.4699
     18 C         137.8540  138.1910  166.6331 C.3     1  UNL1        0.2525
     19 C         141.2934  138.2297  157.0635 C.3     1  UNL1        0.1408
     20 N         142.8348  134.1955  155.7990 N.pl3   1  UNL1       -0.3047
     21 C         143.5864  134.9999  156.8178 C.3     1  UNL1        0.1081
     22 C         143.0726  136.3446  157.2393 C.3     1  UNL1        0.0941
     23 N         141.8072  136.8850  156.6420 N.3     1  UNL1       -0.2644
     24 C         141.0556  136.0806  155.6231 C.3     1  UNL1        0.0777
     25 C         139.7902  136.6210  155.0258 C.3     1  UNL1        0.0192
     26 C         141.5694  134.7358  155.2016 C.3     1  UNL1        0.1067
     27 C         144.3762  130.1612  154.5345 C.ar    1  UNL1        0.1388
     28 C         144.8896  130.8002  155.7907 C.ar    1  UNL1        0.0382
     29 C         144.3758  132.1450  156.2122 C.ar    1  UNL1        0.0176
     30 C         143.3486  132.8507  155.3775 C.ar    1  UNL1        0.0481
     31 C         142.8352  132.2117  154.1213 C.ar    1  UNL1        0.0176
     32 C         143.3490  130.8670  153.6998 C.ar    1  UNL1        0.0382
     33 C         145.3282  128.5914  152.6961 C.3     1  UNL1        0.2525
     34 O         144.8900  128.8165  154.1130 O.3     1  UNL1       -0.4714
@<TRIPOS>BOND
     1    33    34    1
     2    34    27    1
     3    27    28   ar
     4    28    29   ar
     5    29    30   ar
     6    30    20    1
     7    20    21    1
     8    21    22    1
     9    22    23    1
    10    23    19    1
    11    19     1    1
    12     1     2   ar
    13     2     3   ar
    14     3     4   ar
    15     4     5   ar
    16     5     6   ar
    17     6     7   ar
    18     7     8   ar
    19     8    17    1
    20    17    18    1
    21     8     9   ar
    22     9    10   ar
    23    10    11   ar
    24    11    12    1
    25    11    13   ar
    26    13    14   ar
    27    23    24    1
    28    24    25    1
    29    24    26    1
    30    30    31   ar
    31    31    32   ar
    32    32    27   ar
    33    26    20    1
    34    14     1   ar
    35    13     3   ar
    36     9     4   ar
    37    12    15    1
    38    12    16    1
@<TRIPOS>MOLECULE
*****
 34 38 0 0 0
SMALL
GASTEIGER

@<TRIPOS>ATOM
      1 C         143.3237  142.5196  166.7225 C.ar    1  UNL1        0.1769
      2 N         142.1513  141.6706  166.3290 N.ar    1  UNL1       -0.2086
      3 C         141.3821  141.3374  167.5728 C.ar    1  UNL1        0.1695
      4 C         140.1370  140.5315  167.7973 C.ar    1  UNL1        0.0567
      5 C         139.4401  139.8885  166.6351 C.ar    1  UNL1        0.0048
      6 C         138.1951  139.0827  166.8596 C.ar    1  UNL1        0.0033
      7 C         137.6470  138.9198  168.2463 C.ar    1  UNL1        0.0385
      8 C         138.3439  139.5628  169.4085 C.ar    1  UNL1        0.1564
      9 C         139.5889  140.3686  169.1840 C.ar    1  UNL1        0.1209
     10 N         140.2859  141.0117  170.3463 N.ar    1  UNL1       -0.2108
     11 C         141.5309  141.8175  170.1218 C.ar    1  UNL1        0.2163
     12 N         142.2279  142.4605  171.2841 N.pl3   1  UNL1       -0.3274
     13 N         142.0791  141.9804  168.7351 N.ar    1  UNL1       -0.1813
     14 N         143.2790  142.7110  168.2095 N.ar    1  UNL1       -0.1451
     15 H         141.8682  142.3537  172.1943 H       1  UNL1        0.1452
     16 H         143.0451  142.9895  171.1367 H       1  UNL1        0.1452
     17 O         137.7958  139.3999  170.7953 O.3     1  UNL1       -0.4699
     18 C         136.4583  138.7530  171.0019 C.3     1  UNL1        0.2525
     19 C         144.3590  143.0789  165.7922 C.3     1  UNL1        0.1408
     20 N         144.2804  141.9953  161.4253 N.pl3   1  UNL1       -0.3047
     21 C         144.7175  140.9824  162.4416 C.3     1  UNL1        0.1081
     22 C         144.7438  141.3436  163.8972 C.3     1  UNL1        0.0941
     23 N         144.3328  142.7177  164.3366 N.3     1  UNL1       -0.2644
     24 C         143.8956  143.7306  163.3202 C.3     1  UNL1        0.0777
     25 C         143.4847  145.1047  163.7595 C.3     1  UNL1        0.0192
     26 C         143.8694  143.3695  161.8646 C.3     1  UNL1        0.1067
     27 C         144.2017  140.9117  157.0584 C.ar    1  UNL1        0.1388
     28 C         143.6100  139.9790  158.0734 C.ar    1  UNL1        0.0382
     29 C         143.6362  140.3402  159.5290 C.ar    1  UNL1        0.0176
     30 C         144.2542  141.6341  159.9697 C.ar    1  UNL1        0.0481
     31 C         144.8458  142.5667  158.9547 C.ar    1  UNL1        0.0176
     32 C         144.8196  142.2055  157.4991 C.ar    1  UNL1        0.0382
     33 C         144.9532  139.3664  155.1097 C.3     1  UNL1        0.2525
     34 O         144.1755  140.5506  155.6028 O.3     1  UNL1       -0.4714
@<TRIPOS>BOND
     1    33    34    1
     2    34    27    1
     3    27    28   ar
     4    28    29   ar
     5    29    30   ar
     6    30    20    1
     7    20    21    1
     8    21    22    1
     9    22    23    1
    10    23    19    1
    11    19     1    1
    12     1     2   ar
    13     2     3   ar
    14     3     4   ar
    15     4     5   ar
    16     5     6   ar
    17     6     7   ar
    18     7     8   ar
    19     8    17    1
    20    17    18    1
    21     8     9   ar
    22     9    10   ar
    23    10    11   ar
    24    11    12    1
    25    11    13   ar
    26    13    14   ar
    27    23    24    1
    28    24    25    1
    29    24    26    1
    30    30    31   ar
    31    31    32   ar
    32    32    27   ar
    33    26    20    1
    34    14     1   ar
    35    13     3   ar
    36     9     4   ar
    37    12    15    1
    38    12    16    1
@<TRIPOS>MOLECULE
*****
 34 38 0 0 0
SMALL
GASTEIGER

@<TRIPOS>ATOM
      1 C         142.1448  137.2279  157.2069 C.ar    1  UNL1        0.1769
      2 N         141.7655  136.7257  155.8453 N.ar    1  UNL1       -0.2086
      3 C         142.3417  135.3506  155.6813 C.ar    1  UNL1        0.1695
      4 C         142.2918  134.3701  154.5471 C.ar    1  UNL1        0.0567
      5 C         141.5563  134.7179  153.2870 C.ar    1  UNL1        0.0048
      6 C         141.5063  133.7374  152.1529 C.ar    1  UNL1        0.0033
      7 C         142.1919  132.4092  152.2790 C.ar    1  UNL1        0.0385
      8 C         142.9273  132.0614  153.5392 C.ar    1  UNL1        0.1564
      9 C         142.9773  133.0419  154.6733 C.ar    1  UNL1        0.1209
     10 N         143.7128  132.6942  155.9335 N.ar    1  UNL1       -0.2108
     11 C         143.7627  133.6746  157.0676 C.ar    1  UNL1        0.2163
     12 N         144.4982  133.3269  158.3279 N.pl3   1  UNL1       -0.3274
     13 N         143.0772  135.0029  156.9415 N.ar    1  UNL1       -0.1813
     14 N         142.9555  136.1631  157.8843 N.ar    1  UNL1       -0.1451
     15 H         144.9481  132.4552  158.4107 H       1  UNL1        0.1452
     16 H         144.5310  133.9705  159.0722 H       1  UNL1        0.1452
     17 O         143.6128  130.7332  153.6653 O.3     1  UNL1       -0.4699
     18 C         143.9453  129.9410  152.4358 C.3     1  UNL1        0.2525
     19 C         141.7779  138.5609  157.7888 C.3     1  UNL1        0.1408
     20 N         140.3585  138.8418  162.0499 N.pl3   1  UNL1       -0.3047
     21 C         139.3921  138.4859  160.9593 C.3     1  UNL1        0.1081
     22 C         139.8652  138.3922  159.5390 C.3     1  UNL1        0.0941
     23 N         141.3047  138.6545  159.2092 N.3     1  UNL1       -0.2644
     24 C         142.2713  139.0104  160.2997 C.3     1  UNL1        0.0777
     25 C         143.7108  139.2727  159.9699 C.3     1  UNL1        0.0192
     26 C         141.7981  139.1041  161.7201 C.3     1  UNL1        0.1067
     27 C         138.9391  139.1227  166.3109 C.ar    1  UNL1        0.1388
     28 C         138.7007  137.8693  165.5220 C.ar    1  UNL1        0.0382
     29 C         139.1738  137.7757  164.1017 C.ar    1  UNL1        0.0176
     30 C         139.8854  138.9354  163.4702 C.ar    1  UNL1        0.0481
     31 C         140.1238  140.1887  164.2591 C.ar    1  UNL1        0.0176
     32 C         139.6507  140.2824  165.6794 C.ar    1  UNL1        0.0382
     33 C         139.2550  140.0050  168.7341 C.3     1  UNL1        0.2525
     34 O         138.4660  139.2164  167.7312 O.3     1  UNL1       -0.4714
@<TRIPOS>BOND
     1    33    34    1
     2    34    27    1
     3    27    28   ar
     4    28    29   ar
     5    29    30   ar
     6    30    20    1
     7    20    21    1
     8    21    22    1
     9    22    23    1
    10    23    19    1
    11    19     1    1
    12     1     2   ar
    13     2     3   ar
    14     3     4   ar
    15     4     5   ar
    16     5     6   ar
    17     6     7   ar
    18     7     8   ar
    19     8    17    1
    20    17    18    1
    21     8     9   ar
    22     9    10   ar
    23    10    11   ar
    24    11    12    1
    25    11    13   ar
    26    13    14   ar
    27    23    24    1
    28    24    25    1
    29    24    26    1
    30    30    31   ar
    31    31    32   ar
    32    32    27   ar
    33    26    20    1
    34    14     1   ar
    35    13     3   ar
    36     9     4   ar
    37    12    15    1
    38    12    16    1
@<TRIPOS>MOLECULE
*****
 34 38 0 0 0
SMALL
GASTEIGER

@<TRIPOS>ATOM
      1 C         142.6741  142.1356  166.8163 C.ar    1  UNL1        0.1769
      2 N         141.5307  141.2272  166.4736 N.ar    1  UNL1       -0.2086
      3 C         140.7596  140.9578  167.7317 C.ar    1  UNL1        0.1695
      4 C         139.5364  140.1327  168.0020 C.ar    1  UNL1        0.0567
      5 C         138.8696  139.3909  166.8818 C.ar    1  UNL1        0.0048
      6 C         137.6464  138.5659  167.1521 C.ar    1  UNL1        0.0033
      7 C         137.0900  138.4827  168.5426 C.ar    1  UNL1        0.0385
      8 C         137.7568  139.2246  169.6628 C.ar    1  UNL1        0.1564
      9 C         138.9800  140.0496  169.3925 C.ar    1  UNL1        0.1209
     10 N         139.6469  140.7915  170.5128 N.ar    1  UNL1       -0.2108
     11 C         140.8701  141.6165  170.2425 C.ar    1  UNL1        0.2163
     12 N         141.5370  142.3584  171.3627 N.pl3   1  UNL1       -0.3274
     13 N         141.4265  141.6997  168.8519 N.ar    1  UNL1       -0.1813
     14 N         142.6097  142.4276  168.2862 N.ar    1  UNL1       -0.1451
     15 H         141.1719  142.3039  172.2754 H       1  UNL1        0.1452
     16 H         142.3398  142.8999  171.1853 H       1  UNL1        0.1452
     17 O         137.2005  139.1414  171.0533 O.3     1  UNL1       -0.4699
     18 C         135.9415  138.3682  171.3124 C.3     1  UNL1        0.2525
     19 C         143.7016  142.6599  165.8574 C.3     1  UNL1        0.1408
     20 N         142.5079  143.7597  161.6602 N.pl3   1  UNL1       -0.3047
     21 C         141.6284  144.1401  162.8142 C.3     1  UNL1        0.1081
     22 C         142.0263  143.7735  164.2132 C.3     1  UNL1        0.0941
     23 N         143.3037  143.0265  164.4583 N.3     1  UNL1       -0.2644
     24 C         144.1833  142.6461  163.3043 C.3     1  UNL1        0.0777
     25 C         145.4608  141.8991  163.5494 C.3     1  UNL1        0.0192
     26 C         143.7855  143.0127  161.9053 C.3     1  UNL1        0.1067
     27 C         141.3143  144.8595  157.4631 C.ar    1  UNL1        0.1388
     28 C         142.4533  143.9112  157.6949 C.ar    1  UNL1        0.0382
     29 C         142.8511  143.5446  159.0939 C.ar    1  UNL1        0.0176
     30 C         142.1101  144.1263  160.2612 C.ar    1  UNL1        0.0481
     31 C         140.9712  145.0746  160.0294 C.ar    1  UNL1        0.0176
     32 C         140.5733  145.4412  158.6304 C.ar    1  UNL1        0.0382
     33 C         140.1391  146.4838  155.8106 C.3     1  UNL1        0.2525
     34 O         140.9165  145.2261  156.0641 O.3     1  UNL1       -0.4714
@<TRIPOS>BOND
     1    33    34    1
     2    34    27    1
     3    27    28   ar
     4    28    29   ar
     5    29    30   ar
     6    30    20    1
     7    20    21    1
     8    21    22    1
     9    22    23    1
    10    23    19    1
    11    19     1    1
    12     1     2   ar
    13     2     3   ar
    14     3     4   ar
    15     4     5   ar
    16     5     6   ar
    17     6     7   ar
    18     7     8   ar
    19     8    17    1
    20    17    18    1
    21     8     9   ar
    22     9    10   ar
    23    10    11   ar
    24    11    12    1
    25    11    13   ar
    26    13    14   ar
    27    23    24    1
    28    24    25    1
    29    24    26    1
    30    30    31   ar
    31    31    32   ar
    32    32    27   ar
    33    26    20    1
    34    14     1   ar
    35    13     3   ar
    36     9     4   ar
    37    12    15    1
    38    12    16    1
@<TRIPOS>MOLECULE
*****
 34 38 0 0 0
SMALL
GASTEIGER

@<TRIPOS>ATOM
      1 C         142.2937  138.2131  158.1676 C.ar    1  UNL1        0.1769
      2 N         143.0727  136.9353  158.2695 N.ar    1  UNL1       -0.2086
      3 C         142.5646  135.9974  157.2149 C.ar    1  UNL1        0.1695
      4 C         142.9561  134.5977  156.8435 C.ar    1  UNL1        0.0567
      5 C         144.0491  133.8997  157.5971 C.ar    1  UNL1        0.0048
      6 C         144.4406  132.5001  157.2256 C.ar    1  UNL1        0.0033
      7 C         143.7389  131.7986  156.1006 C.ar    1  UNL1        0.0385
      8 C         142.6459  132.4967  155.3471 C.ar    1  UNL1        0.1564
      9 C         142.2544  133.8962  155.7185 C.ar    1  UNL1        0.1209
     10 N         141.1613  134.5944  154.9649 N.ar    1  UNL1       -0.2108
     11 C         140.7699  135.9939  155.3364 C.ar    1  UNL1        0.2163
     12 N         139.6768  136.6920  154.5828 N.pl3   1  UNL1       -0.3274
     13 N         141.4716  136.6954  156.4614 N.ar    1  UNL1       -0.1813
     14 N         141.3041  138.0648  157.0502 N.ar    1  UNL1       -0.1451
     15 H         139.2163  136.2316  153.8444 H       1  UNL1        0.1452
     16 H         139.4199  137.6106  154.8266 H       1  UNL1        0.1452
     17 O         141.9442  131.7952  154.2221 O.3     1  UNL1       -0.4699
     18 C         140.9578  130.7044  154.5174 C.3     1  UNL1        0.2525
     19 C         142.4728  139.4261  159.0316 C.3     1  UNL1        0.1408
     20 N         140.7872  139.4858  163.2036 N.pl3   1  UNL1       -0.3047
     21 C         140.3856  138.4017  162.2478 C.3     1  UNL1        0.1081
     22 C         140.9475  138.3819  160.8572 C.3     1  UNL1        0.0941
     23 N         141.9110  139.4460  160.4223 N.3     1  UNL1       -0.2644
     24 C         142.3126  140.5301  161.3780 C.3     1  UNL1        0.0777
     25 C         143.2761  141.5943  160.9431 C.3     1  UNL1        0.0192
     26 C         141.7508  140.5500  162.7687 C.3     1  UNL1        0.1067
     27 C         139.1017  139.5454  167.3756 C.ar    1  UNL1        0.1388
     28 C         138.2372  139.1269  166.2233 C.ar    1  UNL1        0.0382
     29 C         138.7991  139.1070  164.8326 C.ar    1  UNL1        0.0176
     30 C         140.2254  139.5056  164.5942 C.ar    1  UNL1        0.0481
     31 C         141.0898  139.9241  165.7465 C.ar    1  UNL1        0.0176
     32 C         140.5279  139.9440  167.1371 C.ar    1  UNL1        0.0382
     33 C         139.1909  140.4034  169.8263 C.3     1  UNL1        0.2525
     34 O         138.5398  139.5653  168.7662 O.3     1  UNL1       -0.4714
@<TRIPOS>BOND
     1    33    34    1
     2    34    27    1
     3    27    28   ar
     4    28    29   ar
     5    29    30   ar
     6    30    20    1
     7    20    21    1
     8    21    22    1
     9    22    23    1
    10    23    19    1
    11    19     1    1
    12     1     2   ar
    13     2     3   ar
    14     3     4   ar
    15     4     5   ar
    16     5     6   ar
    17     6     7   ar
    18     7     8   ar
    19     8    17    1
    20    17    18    1
    21     8     9   ar
    22     9    10   ar
    23    10    11   ar
    24    11    12    1
    25    11    13   ar
    26    13    14   ar
    27    23    24    1
    28    24    25    1
    29    24    26    1
    30    30    31   ar
    31    31    32   ar
    32    32    27   ar
    33    26    20    1
    34    14     1   ar
    35    13     3   ar
    36     9     4   ar
    37    12    15    1
    38    12    16    1
@<TRIPOS>MOLECULE
*****
 34 38 0 0 0
SMALL
GASTEIGER

@<TRIPOS>ATOM
      1 C         142.6574  135.7414  156.4268 C.ar    1  UNL1        0.1769
      2 N         141.7503  134.7341  155.7846 N.ar    1  UNL1       -0.2086
      3 C         142.3202  133.3698  156.0370 C.ar    1  UNL1        0.1695
      4 C         141.8551  131.9991  155.6432 C.ar    1  UNL1        0.0567
      5 C         140.5957  131.8351  154.8451 C.ar    1  UNL1        0.0048
      6 C         140.1306  130.4645  154.4513 C.ar    1  UNL1        0.0033
      7 C         140.9249  129.2580  154.8556 C.ar    1  UNL1        0.0385
      8 C         142.1843  129.4221  155.6536 C.ar    1  UNL1        0.1564
      9 C         142.6494  130.7926  156.0474 C.ar    1  UNL1        0.1209
     10 N         143.9088  130.9568  156.8455 N.ar    1  UNL1       -0.2108
     11 C         144.3739  132.3274  157.2393 C.ar    1  UNL1        0.2163
     12 N         145.6334  132.4915  158.0375 N.pl3   1  UNL1       -0.3274
     13 N         143.5796  133.5339  156.8351 N.ar    1  UNL1       -0.1813
     14 N         143.7880  134.9997  157.0760 N.ar    1  UNL1       -0.1451
     15 H         146.1547  131.6997  158.3028 H       1  UNL1        0.1452
     16 H         145.9386  133.3911  158.2959 H       1  UNL1        0.1452
     17 O         142.9786  128.2155  156.0579 O.3     1  UNL1       -0.4699
     18 C         142.3788  127.1980  156.9825 C.3     1  UNL1        0.2525
     19 C         142.4674  137.2294  156.4207 C.3     1  UNL1        0.1408
     20 N         143.7451  139.6753  159.9753 N.pl3   1  UNL1       -0.3047
     21 C         143.1650  138.3067  160.1761 C.3     1  UNL1        0.1081
     22 C         142.7391  137.4914  158.9912 C.3     1  UNL1        0.0941
     23 N         142.8933  138.0447  157.6056 N.3     1  UNL1       -0.2644
     24 C         143.4734  139.4134  157.4047 C.3     1  UNL1        0.0777
     25 C         143.6277  139.9666  156.0191 C.3     1  UNL1        0.0192
     26 C         143.8994  140.2287  158.5896 C.3     1  UNL1        0.1067
     27 C         145.0229  142.1212  163.5298 C.ar    1  UNL1        0.1388
     28 C         144.9214  140.6289  163.6437 C.ar    1  UNL1        0.0382
     29 C         144.4955  139.8136  162.4588 C.ar    1  UNL1        0.0176
     30 C         144.1710  140.4906  161.1601 C.ar    1  UNL1        0.0481
     31 C         144.2725  141.9828  161.0464 C.ar    1  UNL1        0.0176
     32 C         144.6984  142.7981  162.2312 C.ar    1  UNL1        0.0382
     33 C         144.4757  143.8704  165.3714 C.3     1  UNL1        0.2525
     34 O         145.4488  142.9365  164.7147 O.3     1  UNL1       -0.4714
@<TRIPOS>BOND
     1    33    34    1
     2    34    27    1
     3    27    28   ar
     4    28    29   ar
     5    29    30   ar
     6    30    20    1
     7    20    21    1
     8    21    22    1
     9    22    23    1
    10    23    19    1
    11    19     1    1
    12     1     2   ar
    13     2     3   ar
    14     3     4   ar
    15     4     5   ar
    16     5     6   ar
    17     6     7   ar
    18     7     8   ar
    19     8    17    1
    20    17    18    1
    21     8     9   ar
    22     9    10   ar
    23    10    11   ar
    24    11    12    1
    25    11    13   ar
    26    13    14   ar
    27    23    24    1
    28    24    25    1
    29    24    26    1
    30    30    31   ar
    31    31    32   ar
    32    32    27   ar
    33    26    20    1
    34    14     1   ar
    35    13     3   ar
    36     9     4   ar
    37    12    15    1
    38    12    16    1
@<TRIPOS>MOLECULE
*****
 34 38 0 0 0
SMALL
GASTEIGER

@<TRIPOS>ATOM
      1 C         142.1894  137.3682  157.1494 C.ar    1  UNL1        0.1769
      2 N         143.0484  136.2360  157.6291 N.ar    1  UNL1       -0.2086
      3 C         142.9847  135.1404  156.6066 C.ar    1  UNL1        0.1695
      4 C         143.6288  133.7871  156.5442 C.ar    1  UNL1        0.0567
      5 C         144.5270  133.3320  157.6560 C.ar    1  UNL1        0.0048
      6 C         145.1709  131.9787  157.5935 C.ar    1  UNL1        0.0033
      7 C         144.9167  131.0805  156.4194 C.ar    1  UNL1        0.0385
      8 C         144.0184  131.5356  155.3077 C.ar    1  UNL1        0.1564
      9 C         143.3745  132.8889  155.3701 C.ar    1  UNL1        0.1209
     10 N         142.4762  133.3441  154.2583 N.ar    1  UNL1       -0.2108
     11 C         141.8322  134.6973  154.3207 C.ar    1  UNL1        0.2163
     12 N         140.9339  135.1525  153.2089 N.pl3   1  UNL1       -0.3274
     13 N         142.0865  135.5955  155.4949 N.ar    1  UNL1       -0.1813
     14 N         141.5950  136.9724  155.8303 N.ar    1  UNL1       -0.1451
     15 H         140.7670  134.5630  152.4383 H       1  UNL1        0.1452
     16 H         140.5113  136.0407  153.2499 H       1  UNL1        0.1452
     17 O         143.7641  130.6374  154.1335 O.3     1  UNL1       -0.4699
     18 C         142.6404  129.6449  154.1780 C.3     1  UNL1        0.2525
     19 C         141.9645  138.6681  157.8633 C.3     1  UNL1        0.1408
     20 N         142.3905  138.8805  162.3381 N.pl3   1  UNL1       -0.3047
     21 C         143.6067  138.9635  161.4641 C.3     1  UNL1        0.1081
     22 C         143.4647  138.8927  159.9725 C.3     1  UNL1        0.0941
     23 N         142.1065  138.7389  159.3549 N.3     1  UNL1       -0.2644
     24 C         140.8901  138.6559  160.2289 C.3     1  UNL1        0.0777
     25 C         139.5319  138.5021  159.6113 C.3     1  UNL1        0.0192
     26 C         141.0321  138.7267  161.7205 C.3     1  UNL1        0.1067
     27 C         142.8165  139.0928  166.8128 C.ar    1  UNL1        0.1388
     28 C         144.0125  138.7914  165.9590 C.ar    1  UNL1        0.0382
     29 C         143.8705  138.7206  164.4675 C.ar    1  UNL1        0.0176
     30 C         142.5325  138.9512  163.8297 C.ar    1  UNL1        0.0481
     31 C         141.3366  139.2526  164.6834 C.ar    1  UNL1        0.0176
     32 C         141.4786  139.3234  166.1750 C.ar    1  UNL1        0.0382
     33 C         142.5967  140.4237  169.0333 C.3     1  UNL1        0.2525
     34 O         142.9585  139.1636  168.3044 O.3     1  UNL1       -0.4714
@<TRIPOS>BOND
     1    33    34    1
     2    34    27    1
     3    27    28   ar
     4    28    29   ar
     5    29    30   ar
     6    30    20    1
     7    20    21    1
     8    21    22    1
     9    22    23    1
    10    23    19    1
    11    19     1    1
    12     1     2   ar
    13     2     3   ar
    14     3     4   ar
    15     4     5   ar
    16     5     6   ar
    17     6     7   ar
    18     7     8   ar
    19     8    17    1
    20    17    18    1
    21     8     9   ar
    22     9    10   ar
    23    10    11   ar
    24    11    12    1
    25    11    13   ar
    26    13    14   ar
    27    23    24    1
    28    24    25    1
    29    24    26    1
    30    30    31   ar
    31    31    32   ar
    32    32    27   ar
    33    26    20    1
    34    14     1   ar
    35    13     3   ar
    36     9     4   ar
    37    12    15    1
    38    12    16    1
