@<TRIPOS>MOLECULE
*****
 36 39 0 0 0
SMALL
GASTEIGER

@<TRIPOS>ATOM
      1 N         141.1017  144.2809  160.5362 N.3     1  UNL1       -0.2673
      2 C         142.4451  144.1908  161.1973 C.3     1  UNL1        0.1035
      3 C         143.1804  142.8838  161.2265 C.3     1  UNL1        0.1470
      4 C         143.9158  141.5767  161.2558 C.3     1  UNL1        0.1035
      5 N         143.3077  140.3597  160.6239 N.3     1  UNL1       -0.2684
      6 C         141.9642  140.4499  159.9628 C.3     1  UNL1        0.1035
      7 C         141.2289  141.7569  159.9335 C.3     1  UNL1        0.1470
      8 C         140.4936  143.0640  159.9043 C.3     1  UNL1        0.1035
      9 O         142.5723  141.6668  160.5946 O.3     1  UNL1       -0.3530
     10 C         140.3663  145.5880  160.5069 C.3     1  UNL1        0.0913
     11 C         139.7628  146.1374  161.7654 C.3     1  UNL1        0.1087
     12 N         138.4884  145.5559  162.3021 N.3     1  UNL1       -0.1780
     13 H         138.1130  146.2325  162.9667 H       1  UNL1        0.1488
     14 S         138.5051  144.2278  162.9990 S.O2    1  UNL1        0.0603
     15 O         139.2618  144.8369  164.1418 O.2     1  UNL1       -0.1530
     16 O         137.7483  143.6186  161.8561 O.2     1  UNL1       -0.1530
     17 C         138.5550  140.2432  165.0896 C.ar    1  UNL1        0.1388
     18 C         139.2763  141.4138  165.6891 C.ar    1  UNL1        0.0383
     19 C         139.2597  142.7420  164.9922 C.ar    1  UNL1        0.0230
     20 C         138.5217  142.8996  163.6958 C.ar    1  UNL1        0.1221
     21 C         137.8004  141.7290  163.0964 C.ar    1  UNL1        0.0230
     22 C         137.8170  140.4008  163.7932 C.ar    1  UNL1        0.0383
     23 C         139.1224  137.7079  165.0869 C.3     1  UNL1        0.2525
     24 O         138.5717  138.9151  165.7865 O.3     1  UNL1       -0.4714
     25 C         144.0430  139.0527  160.6532 C.3     1  UNL1        0.0761
     26 C         143.6796  138.0102  161.6687 C.3     1  UNL1        0.0646
     27 C         143.5623  138.3828  163.1170 C.3     1  UNL1        0.2068
     28 O         142.4533  139.2845  163.5719 O.3     1  UNL1       -0.4754
     29 C         142.5817  140.0391  164.8619 C.ar    1  UNL1        0.1386
     30 C         142.9369  141.4964  164.8462 C.ar    1  UNL1        0.0376
     31 C         143.0652  142.2510  166.1362 C.ar    1  UNL1        0.0134
     32 C         142.8384  141.5483  167.4419 C.ar    1  UNL1        0.0686
     33 C         142.4832  140.0911  167.4576 C.ar    1  UNL1        0.0134
     34 C         142.3549  139.3365  166.1676 C.ar    1  UNL1        0.0376
     35 C         142.9668  142.3030  168.7319 C.1     1  UNL1        0.1004
     36 N         143.0952  143.0576  170.0218 N.1     1  UNL1       -0.1908
@<TRIPOS>BOND
     1    23    24    1
     2    24    17    1
     3    17    18   ar
     4    18    19   ar
     5    19    20   ar
     6    20    14    1
     7    14    15    2
     8    14    16    2
     9    14    12    1
    10    12    11    1
    11    11    10    1
    12    10     1    1
    13     1     2    1
    14     2     3    1
    15     3     4    1
    16     4     5    1
    17     5    25    1
    18    25    26    1
    19    26    27    1
    20    27    28    1
    21    28    29    1
    22    29    30   ar
    23    30    31   ar
    24    31    32   ar
    25    32    35    1
    26    35    36    3
    27    32    33   ar
    28    33    34   ar
    29     5     6    1
    30     6     7    1
    31     7     8    1
    32     7     9    1
    33    20    21   ar
    34    21    22   ar
    35    22    17   ar
    36     8     1    1
    37     9     3    1
    38    34    29   ar
    39    12    13    1
@<TRIPOS>MOLECULE
*****
 36 39 0 0 0
SMALL
GASTEIGER

@<TRIPOS>ATOM
      1 N         140.3637  138.6603  160.1345 N.3     1  UNL1       -0.2673
      2 C         139.1836  139.5677  160.3183 C.3     1  UNL1        0.1035
      3 C         138.6317  139.8116  161.6915 C.3     1  UNL1        0.1470
      4 C         138.0798  140.0555  163.0649 C.3     1  UNL1        0.1035
      5 N         138.7081  139.3920  164.2544 N.3     1  UNL1       -0.2684
      6 C         139.8883  138.4846  164.0706 C.3     1  UNL1        0.1035
      7 C         140.4402  138.2407  162.6973 C.3     1  UNL1        0.1470
      8 C         140.9920  137.9968  161.3240 C.3     1  UNL1        0.1035
      9 O         139.2600  139.1481  162.8811 O.3     1  UNL1       -0.3530
     10 C         140.9156  138.4164  158.7612 C.3     1  UNL1        0.0913
     11 C         142.3638  138.0672  158.5860 C.3     1  UNL1        0.1087
     12 N         143.3968  139.1538  158.5368 N.3     1  UNL1       -0.1780
     13 H         144.2558  138.7279  158.1889 H       1  UNL1        0.1488
     14 S         143.7590  139.9014  159.7857 S.O2    1  UNL1        0.0603
     15 O         144.3246  138.6432  160.3747 O.2     1  UNL1       -0.1530
     16 O         143.1934  141.1595  159.1966 O.2     1  UNL1       -0.1530
     17 C         144.8458  142.1442  163.5325 C.ar    1  UNL1        0.1388
     18 C         144.7039  140.6514  163.5665 C.ar    1  UNL1        0.0383
     19 C         144.3416  139.9037  162.3176 C.ar    1  UNL1        0.0230
     20 C         144.1213  140.6490  161.0346 C.ar    1  UNL1        0.1221
     21 C         144.2633  142.1419  161.0006 C.ar    1  UNL1        0.0230
     22 C         144.6255  142.8895  162.2495 C.ar    1  UNL1        0.0383
     23 C         144.3071  143.9756  165.2947 C.3     1  UNL1        0.2525
     24 O         145.2081  142.8918  164.7814 O.3     1  UNL1       -0.4714
     25 C         138.1563  139.6359  165.6277 C.3     1  UNL1        0.0761
     26 C         139.0328  139.4543  166.8314 C.3     1  UNL1        0.0646
     27 C         139.8741  140.5937  167.3253 C.3     1  UNL1        0.2068
     28 O         140.9631  141.1526  166.4583 O.3     1  UNL1       -0.4754
     29 C         140.6445  142.2076  165.4406 C.ar    1  UNL1        0.1386
     30 C         141.1642  142.0792  164.0394 C.ar    1  UNL1        0.0376
     31 C         140.8456  143.1341  163.0218 C.ar    1  UNL1        0.0134
     32 C         140.0073  144.3174  163.4053 C.ar    1  UNL1        0.0686
     33 C         139.4876  144.4457  164.8065 C.ar    1  UNL1        0.0134
     34 C         139.8062  143.3908  165.8242 C.ar    1  UNL1        0.0376
     35 C         139.6887  145.3723  162.3876 C.1     1  UNL1        0.1004
     36 N         139.3702  146.4272  161.3699 N.1     1  UNL1       -0.1908
@<TRIPOS>BOND
     1    23    24    1
     2    24    17    1
     3    17    18   ar
     4    18    19   ar
     5    19    20   ar
     6    20    14    1
     7    14    15    2
     8    14    16    2
     9    14    12    1
    10    12    11    1
    11    11    10    1
    12    10     1    1
    13     1     2    1
    14     2     3    1
    15     3     4    1
    16     4     5    1
    17     5    25    1
    18    25    26    1
    19    26    27    1
    20    27    28    1
    21    28    29    1
    22    29    30   ar
    23    30    31   ar
    24    31    32   ar
    25    32    35    1
    26    35    36    3
    27    32    33   ar
    28    33    34   ar
    29     5     6    1
    30     6     7    1
    31     7     8    1
    32     7     9    1
    33    20    21   ar
    34    21    22   ar
    35    22    17   ar
    36     8     1    1
    37     9     3    1
    38    34    29   ar
    39    12    13    1
@<TRIPOS>MOLECULE
*****
 36 39 0 0 0
SMALL
GASTEIGER

@<TRIPOS>ATOM
      1 N         141.7136  137.9212  163.1790 N.3     1  UNL1       -0.2673
      2 C         141.1686  137.9439  161.7818 C.3     1  UNL1        0.1035
      3 C         141.7851  138.8422  160.7508 C.3     1  UNL1        0.1470
      4 C         142.4017  139.7405  159.7198 C.3     1  UNL1        0.1035
      5 N         143.5632  140.6160  160.0861 N.3     1  UNL1       -0.2684
      6 C         144.1083  140.5933  161.4834 C.3     1  UNL1        0.1035
      7 C         143.4917  139.6950  162.5144 C.3     1  UNL1        0.1470
      8 C         142.8752  138.7967  163.5453 C.3     1  UNL1        0.1035
      9 O         142.9467  139.7177  161.1171 O.3     1  UNL1       -0.3530
     10 C         141.0971  137.0228  164.2101 C.3     1  UNL1        0.0913
     11 C         139.9420  137.5091  165.0342 C.3     1  UNL1        0.1087
     12 N         138.6946  138.0004  164.3612 N.3     1  UNL1       -0.1780
     13 H         138.5778  137.4433  163.5148 H       1  UNL1        0.1488
     14 S         138.5800  139.4389  163.9521 S.O2    1  UNL1        0.0603
     15 O         139.1972  139.8582  165.2533 O.2     1  UNL1       -0.1530
     16 O         137.9628  139.0196  162.6508 O.2     1  UNL1       -0.1530
     17 C         138.2361  143.7546  162.7246 C.ar    1  UNL1        0.1388
     18 C         138.2316  143.3858  164.1785 C.ar    1  UNL1        0.0383
     19 C         138.3463  141.9472  164.5877 C.ar    1  UNL1        0.0230
     20 C         138.4654  140.8774  163.5429 C.ar    1  UNL1        0.1221
     21 C         138.4698  141.2463  162.0889 C.ar    1  UNL1        0.0230
     22 C         138.3552  142.6849  161.6798 C.ar    1  UNL1        0.0383
     23 C         139.3496  145.9636  161.9308 C.3     1  UNL1        0.2525
     24 O         138.1214  145.1931  162.3154 O.3     1  UNL1       -0.4714
     25 C         144.1798  141.5143  159.0551 C.3     1  UNL1        0.0761
     26 C         143.7239  142.9381  158.9318 C.3     1  UNL1        0.0646
     27 C         142.5591  143.4254  159.7415 C.3     1  UNL1        0.2068
     28 O         142.7760  144.4164  160.8464 O.3     1  UNL1       -0.4754
     29 C         142.8558  143.9479  162.2692 C.ar    1  UNL1        0.1386
     30 C         143.9719  144.4204  163.1529 C.ar    1  UNL1        0.0376
     31 C         144.0517  143.9519  164.5756 C.ar    1  UNL1        0.0134
     32 C         143.0153  143.0109  165.1145 C.ar    1  UNL1        0.0686
     33 C         141.8992  142.5384  164.2308 C.ar    1  UNL1        0.0134
     34 C         141.8195  143.0069  162.8081 C.ar    1  UNL1        0.0376
     35 C         143.0951  142.5424  166.5373 C.1     1  UNL1        0.1004
     36 N         143.1749  142.0738  167.9600 N.1     1  UNL1       -0.1908
@<TRIPOS>BOND
     1    23    24    1
     2    24    17    1
     3    17    18   ar
     4    18    19   ar
     5    19    20   ar
     6    20    14    1
     7    14    15    2
     8    14    16    2
     9    14    12    1
    10    12    11    1
    11    11    10    1
    12    10     1    1
    13     1     2    1
    14     2     3    1
    15     3     4    1
    16     4     5    1
    17     5    25    1
    18    25    26    1
    19    26    27    1
    20    27    28    1
    21    28    29    1
    22    29    30   ar
    23    30    31   ar
    24    31    32   ar
    25    32    35    1
    26    35    36    3
    27    32    33   ar
    28    33    34   ar
    29     5     6    1
    30     6     7    1
    31     7     8    1
    32     7     9    1
    33    20    21   ar
    34    21    22   ar
    35    22    17   ar
    36     8     1    1
    37     9     3    1
    38    34    29   ar
    39    12    13    1
@<TRIPOS>MOLECULE
*****
 36 39 0 0 0
SMALL
GASTEIGER

@<TRIPOS>ATOM
      1 N         140.0351  141.4617  159.8738 N.3     1  UNL1       -0.2673
      2 C         141.5098  141.4188  159.6030 C.3     1  UNL1        0.1035
      3 C         142.4471  142.2574  160.4204 C.3     1  UNL1        0.1470
      4 C         143.3845  143.0960  161.2378 C.3     1  UNL1        0.1035
      5 N         142.8471  143.9774  162.3260 N.3     1  UNL1       -0.2684
      6 C         141.3723  144.0203  162.5968 C.3     1  UNL1        0.1035
      7 C         140.4350  143.1817  161.7794 C.3     1  UNL1        0.1470
      8 C         139.4977  142.3432  160.9620 C.3     1  UNL1        0.1035
      9 O         141.9097  143.1388  161.5086 O.3     1  UNL1       -0.3530
     10 C         139.0977  140.6231  159.0564 C.3     1  UNL1        0.0913
     11 C         138.9168  139.1694  159.3789 C.3     1  UNL1        0.1087
     12 N         139.7874  138.5161  160.4111 N.3     1  UNL1       -0.1780
     13 H         139.8325  137.5252  160.1738 H       1  UNL1        0.1488
     14 S         139.4192  138.5973  161.8629 S.O2    1  UNL1        0.0603
     15 O         137.9692  138.6893  161.4901 O.2     1  UNL1       -0.1530
     16 O         140.8691  138.5053  162.2358 O.2     1  UNL1       -0.1530
     17 C         138.3146  138.8408  166.2184 C.ar    1  UNL1        0.1388
     18 C         138.1918  140.0537  165.3447 C.ar    1  UNL1        0.0383
     19 C         138.5600  139.9726  163.8928 C.ar    1  UNL1        0.0230
     20 C         139.0510  138.6785  163.3147 C.ar    1  UNL1        0.1221
     21 C         139.1738  137.4654  164.1886 C.ar    1  UNL1        0.0230
     22 C         138.8056  137.5466  165.6404 C.ar    1  UNL1        0.0383
     23 C         138.8070  139.7015  168.6198 C.3     1  UNL1        0.2525
     24 O         137.9464  138.9219  167.6703 O.3     1  UNL1       -0.4714
     25 C         143.7844  144.8160  163.1434 C.3     1  UNL1        0.0761
     26 C         144.1710  144.3786  164.5252 C.3     1  UNL1        0.0646
     27 C         144.5395  142.9477  164.7833 C.3     1  UNL1        0.2068
     28 O         143.4846  141.9644  165.1962 O.3     1  UNL1       -0.4754
     29 C         142.6374  142.2363  166.4038 C.ar    1  UNL1        0.1386
     30 C         141.1753  142.5304  166.2434 C.ar    1  UNL1        0.0376
     31 C         140.3281  142.8023  167.4510 C.ar    1  UNL1        0.0134
     32 C         140.9430  142.7799  168.8190 C.ar    1  UNL1        0.0686
     33 C         142.4051  142.4857  168.9794 C.ar    1  UNL1        0.0134
     34 C         143.2522  142.2139  167.7718 C.ar    1  UNL1        0.0376
     35 C         140.0957  143.0517  170.0267 C.1     1  UNL1        0.1004
     36 N         139.2485  143.3236  171.2342 N.1     1  UNL1       -0.1908
@<TRIPOS>BOND
     1    23    24    1
     2    24    17    1
     3    17    18   ar
     4    18    19   ar
     5    19    20   ar
     6    20    14    1
     7    14    15    2
     8    14    16    2
     9    14    12    1
    10    12    11    1
    11    11    10    1
    12    10     1    1
    13     1     2    1
    14     2     3    1
    15     3     4    1
    16     4     5    1
    17     5    25    1
    18    25    26    1
    19    26    27    1
    20    27    28    1
    21    28    29    1
    22    29    30   ar
    23    30    31   ar
    24    31    32   ar
    25    32    35    1
    26    35    36    3
    27    32    33   ar
    28    33    34   ar
    29     5     6    1
    30     6     7    1
    31     7     8    1
    32     7     9    1
    33    20    21   ar
    34    21    22   ar
    35    22    17   ar
    36     8     1    1
    37     9     3    1
    38    34    29   ar
    39    12    13    1
@<TRIPOS>MOLECULE
*****
 36 39 0 0 0
SMALL
GASTEIGER

@<TRIPOS>ATOM
      1 N         138.3837  140.7957  164.9647 N.3     1  UNL1       -0.2673
      2 C         139.3691  141.7730  165.5335 C.3     1  UNL1        0.1035
      3 C         139.6906  143.0340  164.7874 C.3     1  UNL1        0.1470
      4 C         140.0121  144.2950  164.0414 C.3     1  UNL1        0.1035
      5 N         139.3481  144.5786  162.7266 N.3     1  UNL1       -0.2684
      6 C         138.3626  143.6011  162.1578 C.3     1  UNL1        0.1035
      7 C         138.0411  142.3402  162.9039 C.3     1  UNL1        0.1470
      8 C         137.7197  141.0792  163.6499 C.3     1  UNL1        0.1035
      9 O         139.0266  143.3175  163.4726 O.3     1  UNL1       -0.3530
     10 C         138.0622  139.5346  165.7108 C.3     1  UNL1        0.0913
     11 C         139.0426  138.3995  165.7227 C.3     1  UNL1        0.1087
     12 N         139.0785  137.4275  164.5808 N.3     1  UNL1       -0.1780
     13 H         139.3675  136.5291  164.9678 H       1  UNL1        0.1488
     14 S         139.9609  137.6931  163.3972 S.O2    1  UNL1        0.0603
     15 O         138.7522  137.7628  162.5117 O.2     1  UNL1       -0.1530
     16 O         141.1696  137.6233  164.2827 O.2     1  UNL1       -0.1530
     17 C         142.6082  138.4898  159.8466 C.ar    1  UNL1        0.1388
     18 C         141.1385  138.7791  159.7663 C.ar    1  UNL1        0.0383
     19 C         140.2561  138.5135  160.9499 C.ar    1  UNL1        0.0230
     20 C         140.8433  137.9587  162.2137 C.ar    1  UNL1        0.1221
     21 C         142.3130  137.6694  162.2939 C.ar    1  UNL1        0.0230
     22 C         143.1954  137.9350  161.1104 C.ar    1  UNL1        0.0383
     23 C         142.9116  138.7484  157.2793 C.3     1  UNL1        0.2525
     24 O         143.4905  138.7554  158.6630 O.3     1  UNL1       -0.4714
     25 C         139.6696  145.8395  161.9805 C.3     1  UNL1        0.0761
     26 C         140.2042  145.7673  160.5808 C.3     1  UNL1        0.0646
     27 C         141.1670  144.6817  160.2008 C.3     1  UNL1        0.2068
     28 O         142.5517  144.6718  160.7771 O.3     1  UNL1       -0.4754
     29 C         142.9988  143.5257  161.6354 C.ar    1  UNL1        0.1386
     30 C         142.0660  142.3824  161.9053 C.ar    1  UNL1        0.0376
     31 C         142.5131  141.2363  162.7635 C.ar    1  UNL1        0.0134
     32 C         143.8929  141.2335  163.3518 C.ar    1  UNL1        0.0686
     33 C         144.8257  142.3767  163.0819 C.ar    1  UNL1        0.0134
     34 C         144.3786  143.5228  162.2237 C.ar    1  UNL1        0.0376
     35 C         144.3400  140.0873  164.2100 C.1     1  UNL1        0.1004
     36 N         144.7869  138.9412  165.0682 N.1     1  UNL1       -0.1908
@<TRIPOS>BOND
     1    23    24    1
     2    24    17    1
     3    17    18   ar
     4    18    19   ar
     5    19    20   ar
     6    20    14    1
     7    14    15    2
     8    14    16    2
     9    14    12    1
    10    12    11    1
    11    11    10    1
    12    10     1    1
    13     1     2    1
    14     2     3    1
    15     3     4    1
    16     4     5    1
    17     5    25    1
    18    25    26    1
    19    26    27    1
    20    27    28    1
    21    28    29    1
    22    29    30   ar
    23    30    31   ar
    24    31    32   ar
    25    32    35    1
    26    35    36    3
    27    32    33   ar
    28    33    34   ar
    29     5     6    1
    30     6     7    1
    31     7     8    1
    32     7     9    1
    33    20    21   ar
    34    21    22   ar
    35    22    17   ar
    36     8     1    1
    37     9     3    1
    38    34    29   ar
    39    12    13    1
@<TRIPOS>MOLECULE
*****
 36 39 0 0 0
SMALL
GASTEIGER

@<TRIPOS>ATOM
      1 N         142.7454  140.4920  159.9710 N.3     1  UNL1       -0.2673
      2 C         143.5429  141.7621  159.9974 C.3     1  UNL1        0.1035
      3 C         142.8435  143.0847  160.1046 C.3     1  UNL1        0.1470
      4 C         142.1441  144.4074  160.2118 C.3     1  UNL1        0.1035
      5 N         140.6472  144.4598  160.2927 N.3     1  UNL1       -0.2684
      6 C         139.8497  143.1896  160.2663 C.3     1  UNL1        0.1035
      7 C         140.5491  141.8670  160.1590 C.3     1  UNL1        0.1470
      8 C         141.2485  140.5444  160.0518 C.3     1  UNL1        0.1035
      9 O         141.3466  143.1371  160.1854 O.3     1  UNL1       -0.3530
     10 C         143.4448  139.1693  159.8638 C.3     1  UNL1        0.0913
     11 C         142.7083  137.9031  160.1866 C.3     1  UNL1        0.1087
     12 N         142.8309  137.2910  161.5506 N.3     1  UNL1       -0.1780
     13 H         142.4646  136.3416  161.4813 H       1  UNL1        0.1488
     14 S         142.1519  137.9325  162.7242 S.O2    1  UNL1        0.0603
     15 O         140.8346  137.3837  162.2621 O.2     1  UNL1       -0.1530
     16 O         143.4691  138.4812  163.1864 O.2     1  UNL1       -0.1530
     17 C         140.1148  139.8568  166.2452 C.ar    1  UNL1        0.1388
     18 C         141.5465  139.4225  166.3524 C.ar    1  UNL1        0.0383
     19 C         142.2256  138.7810  165.1787 C.ar    1  UNL1        0.0230
     20 C         141.4729  138.5739  163.8979 C.ar    1  UNL1        0.1221
     21 C         140.0411  139.0082  163.7907 C.ar    1  UNL1        0.0230
     22 C         139.3621  139.6496  164.9644 C.ar    1  UNL1        0.0383
     23 C         139.8465  140.1330  168.8146 C.3     1  UNL1        0.2525
     24 O         139.4358  140.4982  167.4189 O.3     1  UNL1       -0.4714
     25 C         139.9477  145.7824  160.3999 C.3     1  UNL1        0.0761
     26 C         139.5568  146.3172  161.7457 C.3     1  UNL1        0.0646
     27 C         138.9124  145.4126  162.7539 C.3     1  UNL1        0.2068
     28 O         139.6599  145.0172  163.9927 O.3     1  UNL1       -0.4754
     29 C         140.9853  144.3239  163.8798 C.ar    1  UNL1        0.1386
     30 C         142.2528  145.1259  163.8691 C.ar    1  UNL1        0.0376
     31 C         143.5781  144.4326  163.7562 C.ar    1  UNL1        0.0134
     32 C         143.6359  142.9372  163.6539 C.ar    1  UNL1        0.0686
     33 C         142.3684  142.1351  163.6646 C.ar    1  UNL1        0.0134
     34 C         141.0431  142.8285  163.7775 C.ar    1  UNL1        0.0376
     35 C         144.9613  142.2438  163.5410 C.1     1  UNL1        0.1004
     36 N         146.2866  141.5505  163.4280 N.1     1  UNL1       -0.1908
@<TRIPOS>BOND
     1    23    24    1
     2    24    17    1
     3    17    18   ar
     4    18    19   ar
     5    19    20   ar
     6    20    14    1
     7    14    15    2
     8    14    16    2
     9    14    12    1
    10    12    11    1
    11    11    10    1
    12    10     1    1
    13     1     2    1
    14     2     3    1
    15     3     4    1
    16     4     5    1
    17     5    25    1
    18    25    26    1
    19    26    27    1
    20    27    28    1
    21    28    29    1
    22    29    30   ar
    23    30    31   ar
    24    31    32   ar
    25    32    35    1
    26    35    36    3
    27    32    33   ar
    28    33    34   ar
    29     5     6    1
    30     6     7    1
    31     7     8    1
    32     7     9    1
    33    20    21   ar
    34    21    22   ar
    35    22    17   ar
    36     8     1    1
    37     9     3    1
    38    34    29   ar
    39    12    13    1
@<TRIPOS>MOLECULE
*****
 36 39 0 0 0
SMALL
GASTEIGER

@<TRIPOS>ATOM
      1 N         140.7915  141.6712  159.7366 N.3     1  UNL1       -0.2673
      2 C         142.2834  141.5166  159.7517 C.3     1  UNL1        0.1035
      3 C         143.0927  142.1574  160.8399 C.3     1  UNL1        0.1470
      4 C         143.9022  142.7983  161.9282 C.3     1  UNL1        0.1035
      5 N         143.2196  143.5938  163.0012 N.3     1  UNL1       -0.2684
      6 C         141.7277  143.7484  162.9860 C.3     1  UNL1        0.1035
      7 C         140.9183  143.1075  161.8978 C.3     1  UNL1        0.1470
      8 C         140.1089  142.4667  160.8096 C.3     1  UNL1        0.1035
      9 O         142.4102  142.9529  161.9130 O.3     1  UNL1       -0.3530
     10 C         139.9820  141.0303  158.6484 C.3     1  UNL1        0.0913
     11 C         139.4762  139.6283  158.8165 C.3     1  UNL1        0.1087
     12 N         138.2241  139.3717  159.6017 N.3     1  UNL1       -0.1780
     13 H         137.5699  140.1176  159.3647 H       1  UNL1        0.1488
     14 S         138.2787  139.3033  161.0991 S.O2    1  UNL1        0.0603
     15 O         137.3292  140.4611  161.1867 O.2     1  UNL1       -0.1530
     16 O         139.2283  138.1454  161.0116 O.2     1  UNL1       -0.1530
     17 C         138.4425  139.0979  165.5915 C.ar    1  UNL1        0.1388
     18 C         138.7904  137.8905  164.7723 C.ar    1  UNL1        0.0383
     19 C         138.7358  137.9589  163.2748 C.ar    1  UNL1        0.0230
     20 C         138.3333  139.2348  162.5966 C.ar    1  UNL1        0.1221
     21 C         137.9855  140.4423  163.4158 C.ar    1  UNL1        0.0230
     22 C         138.0401  140.3738  164.9132 C.ar    1  UNL1        0.0383
     23 C         139.4707  139.8852  167.8438 C.3     1  UNL1        0.2525
     24 O         138.4972  139.0294  167.0889 O.3     1  UNL1       -0.4714
     25 C         144.0290  144.2346  164.0894 C.3     1  UNL1        0.0761
     26 C         144.5199  143.4112  165.2431 C.3     1  UNL1        0.0646
     27 C         143.5476  142.8870  166.2578 C.3     1  UNL1        0.2068
     28 O         143.2576  141.4170  166.3292 O.3     1  UNL1       -0.4754
     29 C         143.2051  140.6010  165.0716 C.ar    1  UNL1        0.1386
     30 C         141.8974  140.3924  164.3670 C.ar    1  UNL1        0.0376
     31 C         141.8450  139.5764  163.1095 C.ar    1  UNL1        0.0134
     32 C         143.1001  138.9690  162.5566 C.ar    1  UNL1        0.0686
     33 C         144.4077  139.1776  163.2612 C.ar    1  UNL1        0.0134
     34 C         144.4602  139.9936  164.5187 C.ar    1  UNL1        0.0376
     35 C         143.0476  138.1530  161.2990 C.1     1  UNL1        0.1004
     36 N         142.9951  137.3369  160.0415 N.1     1  UNL1       -0.1908
@<TRIPOS>BOND
     1    23    24    1
     2    24    17    1
     3    17    18   ar
     4    18    19   ar
     5    19    20   ar
     6    20    14    1
     7    14    15    2
     8    14    16    2
     9    14    12    1
    10    12    11    1
    11    11    10    1
    12    10     1    1
    13     1     2    1
    14     2     3    1
    15     3     4    1
    16     4     5    1
    17     5    25    1
    18    25    26    1
    19    26    27    1
    20    27    28    1
    21    28    29    1
    22    29    30   ar
    23    30    31   ar
    24    31    32   ar
    25    32    35    1
    26    35    36    3
    27    32    33   ar
    28    33    34   ar
    29     5     6    1
    30     6     7    1
    31     7     8    1
    32     7     9    1
    33    20    21   ar
    34    21    22   ar
    35    22    17   ar
    36     8     1    1
    37     9     3    1
    38    34    29   ar
    39    12    13    1
@<TRIPOS>MOLECULE
*****
 36 39 0 0 0
SMALL
GASTEIGER

@<TRIPOS>ATOM
      1 N         140.8970  138.4170  159.5658 N.3     1  UNL1       -0.2673
      2 C         141.8245  137.9254  160.6373 C.3     1  UNL1        0.1035
      3 C         141.3177  137.7279  162.0352 C.3     1  UNL1        0.1470
      4 C         140.8110  137.5304  163.4332 C.3     1  UNL1        0.1035
      5 N         139.3768  137.8244  163.7596 N.3     1  UNL1       -0.2684
      6 C         138.4493  138.3159  162.6880 C.3     1  UNL1        0.1035
      7 C         138.9560  138.5134  161.2901 C.3     1  UNL1        0.1470
      8 C         139.4627  138.7110  159.8922 C.3     1  UNL1        0.1035
      9 O         139.8835  138.0219  162.3616 O.3     1  UNL1       -0.3530
     10 C         141.4037  138.6145  158.1678 C.3     1  UNL1        0.0913
     11 C         142.8550  138.9103  157.9309 C.3     1  UNL1        0.1087
     12 N         143.3699  140.3107  158.0849 N.3     1  UNL1       -0.1780
     13 H         144.2473  140.3604  157.5671 H       1  UNL1        0.1488
     14 S         143.6423  140.8635  159.4524 S.O2    1  UNL1        0.0603
     15 O         142.7881  142.0564  159.1404 O.2     1  UNL1       -0.1530
     16 O         144.4965  139.6707  159.7645 O.2     1  UNL1       -0.1530
     17 C         144.4594  142.5219  163.5551 C.ar    1  UNL1        0.1388
     18 C         144.1147  143.4481  162.4268 C.ar    1  UNL1        0.0383
     19 C         143.8423  142.8953  161.0591 C.ar    1  UNL1        0.0230
     20 C         143.9146  141.4163  160.8200 C.ar    1  UNL1        0.1221
     21 C         144.2593  140.4900  161.9484 C.ar    1  UNL1        0.0230
     22 C         144.5317  141.0428  163.3159 C.ar    1  UNL1        0.0383
     23 C         143.7722  142.8079  166.0442 C.3     1  UNL1        0.2525
     24 O         144.7318  143.0747  164.9226 O.3     1  UNL1       -0.4714
     25 C         138.8701  137.6269  165.1575 C.3     1  UNL1        0.0761
     26 C         138.4014  138.8051  165.9589 C.3     1  UNL1        0.0646
     27 C         139.4001  139.6995  166.6317 C.3     1  UNL1        0.2068
     28 O         140.5425  140.2723  165.8465 O.3     1  UNL1       -0.4754
     29 C         140.3268  141.4764  164.9782 C.ar    1  UNL1        0.1386
     30 C         139.7657  142.7360  165.5686 C.ar    1  UNL1        0.0376
     31 C         139.5500  143.9399  164.7004 C.ar    1  UNL1        0.0134
     32 C         139.8955  143.8844  163.2418 C.ar    1  UNL1        0.0686
     33 C         140.4566  142.6248  162.6514 C.ar    1  UNL1        0.0134
     34 C         140.6723  141.4209  163.5196 C.ar    1  UNL1        0.0376
     35 C         139.6798  145.0885  162.3735 C.1     1  UNL1        0.1004
     36 N         139.4642  146.2925  161.5054 N.1     1  UNL1       -0.1908
@<TRIPOS>BOND
     1    23    24    1
     2    24    17    1
     3    17    18   ar
     4    18    19   ar
     5    19    20   ar
     6    20    14    1
     7    14    15    2
     8    14    16    2
     9    14    12    1
    10    12    11    1
    11    11    10    1
    12    10     1    1
    13     1     2    1
    14     2     3    1
    15     3     4    1
    16     4     5    1
    17     5    25    1
    18    25    26    1
    19    26    27    1
    20    27    28    1
    21    28    29    1
    22    29    30   ar
    23    30    31   ar
    24    31    32   ar
    25    32    35    1
    26    35    36    3
    27    32    33   ar
    28    33    34   ar
    29     5     6    1
    30     6     7    1
    31     7     8    1
    32     7     9    1
    33    20    21   ar
    34    21    22   ar
    35    22    17   ar
    36     8     1    1
    37     9     3    1
    38    34    29   ar
    39    12    13    1
@<TRIPOS>MOLECULE
*****
 36 39 0 0 0
SMALL
GASTEIGER

@<TRIPOS>ATOM
      1 N         140.2695  140.2645  159.4262 N.3     1  UNL1       -0.2673
      2 C         139.1712  139.8387  160.3548 C.3     1  UNL1        0.1035
      3 C         138.5309  140.8412  161.2686 C.3     1  UNL1        0.1470
      4 C         137.8907  141.8437  162.1824 C.3     1  UNL1        0.1035
      5 N         138.3488  143.2720  162.1677 N.3     1  UNL1       -0.2684
      6 C         139.4472  143.6977  161.2390 C.3     1  UNL1        0.1035
      7 C         140.0874  142.6953  160.3252 C.3     1  UNL1        0.1470
      8 C         140.7276  141.6928  159.4114 C.3     1  UNL1        0.1035
      9 O         138.9891  142.2695  161.2538 O.3     1  UNL1       -0.3530
     10 C         140.9098  139.2620  158.5123 C.3     1  UNL1        0.0913
     11 C         141.6302  138.0776  159.0852 C.3     1  UNL1        0.1087
     12 N         142.9734  138.2560  159.7287 N.3     1  UNL1       -0.1780
     13 H         143.5386  137.4511  159.4584 H       1  UNL1        0.1488
     14 S         143.0803  138.3792  161.2197 S.O2    1  UNL1        0.0603
     15 O         144.2865  139.2565  161.0608 O.2     1  UNL1       -0.1530
     16 O         141.8741  137.5019  161.3787 O.2     1  UNL1       -0.1530
     17 C         143.4011  138.7487  165.6931 C.ar    1  UNL1        0.1388
     18 C         142.1645  138.1663  165.0754 C.ar    1  UNL1        0.0383
     19 C         142.0575  138.0431  163.5842 C.ar    1  UNL1        0.0230
     20 C         143.1872  138.5023  162.7108 C.ar    1  UNL1        0.1221
     21 C         144.4239  139.0848  163.3286 C.ar    1  UNL1        0.0230
     22 C         144.5308  139.2079  164.8196 C.ar    1  UNL1        0.0383
     23 C         142.3444  139.3848  167.9797 C.3     1  UNL1        0.2525
     24 O         143.5080  138.8718  167.1841 O.3     1  UNL1       -0.4714
     25 C         137.7086  144.2745  163.0815 C.3     1  UNL1        0.0761
     26 C         137.7289  144.0570  164.5655 C.3     1  UNL1        0.0646
     27 C         138.8170  144.6676  165.3981 C.3     1  UNL1        0.2068
     28 O         140.0654  143.8887  165.6891 O.3     1  UNL1       -0.4754
     29 C         141.0724  143.6525  164.6027 C.ar    1  UNL1        0.1386
     30 C         141.3957  142.2528  164.1711 C.ar    1  UNL1        0.0376
     31 C         142.4027  142.0167  163.0848 C.ar    1  UNL1        0.0134
     32 C         143.0863  143.1802  162.4299 C.ar    1  UNL1        0.0686
     33 C         142.7629  144.5799  162.8615 C.ar    1  UNL1        0.0134
     34 C         141.7560  144.8160  163.9478 C.ar    1  UNL1        0.0376
     35 C         144.0933  142.9440  161.3435 C.1     1  UNL1        0.1004
     36 N         145.1003  142.7079  160.2572 N.1     1  UNL1       -0.1908
@<TRIPOS>BOND
     1    23    24    1
     2    24    17    1
     3    17    18   ar
     4    18    19   ar
     5    19    20   ar
     6    20    14    1
     7    14    15    2
     8    14    16    2
     9    14    12    1
    10    12    11    1
    11    11    10    1
    12    10     1    1
    13     1     2    1
    14     2     3    1
    15     3     4    1
    16     4     5    1
    17     5    25    1
    18    25    26    1
    19    26    27    1
    20    27    28    1
    21    28    29    1
    22    29    30   ar
    23    30    31   ar
    24    31    32   ar
    25    32    35    1
    26    35    36    3
    27    32    33   ar
    28    33    34   ar
    29     5     6    1
    30     6     7    1
    31     7     8    1
    32     7     9    1
    33    20    21   ar
    34    21    22   ar
    35    22    17   ar
    36     8     1    1
    37     9     3    1
    38    34    29   ar
    39    12    13    1
