@<TRIPOS>MOLECULE
*****
 45 50 0 0 0
SMALL
GASTEIGER

@<TRIPOS>ATOM
      1 C         143.3426  140.5386  158.6119 C.ar    1  UNL1        0.0536
      2 C         142.9280  141.3712  159.7887 C.ar    1  UNL1        0.0159
      3 C         143.6465  142.6527  160.0911 C.ar    1  UNL1        0.0787
      4 N         144.7796  143.1017  159.2167 N.ar    1  UNL1       -0.2456
      5 C         145.1942  142.2691  158.0399 C.ar    1  UNL1        0.0814
      6 C         146.3273  142.7181  157.1655 C.ar    1  UNL1        0.0191
      7 C         146.7419  141.8855  155.9887 C.ar    1  UNL1        0.0015
      8 C         146.0234  140.6039  155.6863 C.ar    1  UNL1        0.0001
      9 C         144.8904  140.1550  156.5607 C.ar    1  UNL1        0.0016
     10 C         144.4758  140.9876  157.7374 C.ar    1  UNL1        0.0218
     11 C         143.2318  143.4853  161.2680 C.ar    1  UNL1        0.0173
     12 C         141.9789  144.3072  161.2010 C.ar    1  UNL1        0.0015
     13 C         141.5643  145.1397  162.3778 C.ar    1  UNL1       -0.0000
     14 C         142.4026  145.1504  163.6216 C.ar    1  UNL1        0.0039
     15 C         143.6556  144.3285  163.6886 C.ar    1  UNL1        0.0715
     16 C         144.0702  143.4960  162.5117 C.ar    1  UNL1        0.0053
     17 C         144.4940  144.3391  164.9323 C.3     1  UNL1        0.4186
     18 F         145.3324  144.3498  166.1761 F       1  UNL1       -0.1659
     19 F         144.1951  145.7969  165.1213 F       1  UNL1       -0.1659
     20 F         144.7929  142.8814  164.7434 F       1  UNL1       -0.1659
     21 N         141.7678  139.1489  157.0826 N.am    1  UNL1       -0.2987
     22 C         142.6242  139.2571  158.3094 C.2     1  UNL1        0.2459
     23 O         142.7621  138.0838  159.2337 O.2     1  UNL1       -0.2701
     24 H         141.6772  139.9189  156.4760 H       1  UNL1        0.1500
     25 C         139.5963  137.7230  157.1236 C.3     1  UNL1        0.0262
     26 C         141.0493  137.8673  156.7802 C.3     1  UNL1        0.0944
     27 C         141.7839  136.7300  156.1344 C.ar    1  UNL1       -0.0045
     28 C         141.0216  135.5629  155.5806 C.ar    1  UNL1       -0.0027
     29 C         141.7561  134.4256  154.9349 C.ar    1  UNL1       -0.0003
     30 C         143.2530  134.4555  154.8428 C.ar    1  UNL1       -0.0000
     31 C         144.0154  135.6227  155.3965 C.ar    1  UNL1       -0.0003
     32 C         143.2807  136.7599  156.0423 C.ar    1  UNL1       -0.0027
     33 C         141.7949  140.9222  160.6631 C.3     1  UNL1        0.1008
     34 N         141.9724  140.8672  162.1515 N.3     1  UNL1       -0.2688
     35 C         143.1503  140.1488  162.7403 C.3     1  UNL1        0.0738
     36 C         143.3278  140.0938  164.2287 C.3     1  UNL1        0.0333
     37 C         142.3275  140.7572  165.1284 C.3     1  UNL1        0.0603
     38 C         141.1497  141.4756  164.5396 C.3     1  UNL1        0.0333
     39 C         140.9722  141.5306  163.0511 C.3     1  UNL1        0.0738
     40 N         142.5050  140.7022  166.6168 N.3     1  UNL1       -0.2739
     41 C         142.3129  139.4065  167.3477 C.3     1  UNL1        0.0720
     42 C         142.4904  139.3515  168.8361 C.3     1  UNL1        0.0174
     43 C         142.8601  140.5922  169.5937 C.3     1  UNL1        0.0029
     44 C         143.0523  141.8880  168.8628 C.3     1  UNL1        0.0174
     45 C         142.8747  141.9429  167.3743 C.3     1  UNL1        0.0720
@<TRIPOS>BOND
     1    26    25    1
     2    26    21    1
     3    21    22   am
     4    22    23    2
     5    22     1    1
     6     1     2   ar
     7     2    33    1
     8    33    34    1
     9    34    35    1
    10    35    36    1
    11    36    37    1
    12    37    40    1
    13    40    41    1
    14    41    42    1
    15    42    43    1
    16    43    44    1
    17    44    45    1
    18    37    38    1
    19    38    39    1
    20     2     3   ar
    21     3    11    1
    22    11    12   ar
    23    12    13   ar
    24    13    14   ar
    25    14    15   ar
    26    15    17    1
    27    17    18    1
    28    17    19    1
    29    17    20    1
    30    15    16   ar
    31     3     4   ar
    32     4     5   ar
    33     5     6   ar
    34     6     7   ar
    35     7     8   ar
    36     8     9   ar
    37     9    10   ar
    38    26    27    1
    39    27    28   ar
    40    28    29   ar
    41    29    30   ar
    42    30    31   ar
    43    31    32   ar
    44    10     1   ar
    45    32    27   ar
    46    39    34    1
    47    16    11   ar
    48    10     5   ar
    49    45    40    1
    50    21    24    1
@<TRIPOS>MOLECULE
*****
 45 50 0 0 0
SMALL
GASTEIGER

@<TRIPOS>ATOM
      1 C         140.8007  139.4706  158.5617 C.ar    1  UNL1        0.0536
      2 C         141.5636  139.9958  159.7415 C.ar    1  UNL1        0.0159
      3 C         142.8022  139.2900  160.2083 C.ar    1  UNL1        0.0787
      4 N         143.2778  138.0591  159.4952 N.ar    1  UNL1       -0.2456
      5 C         142.5149  137.5339  158.3153 C.ar    1  UNL1        0.0814
      6 C         142.9905  136.3029  157.6022 C.ar    1  UNL1        0.0191
      7 C         142.2276  135.7777  156.4224 C.ar    1  UNL1        0.0015
      8 C         140.9890  136.4835  155.9556 C.ar    1  UNL1        0.0001
      9 C         140.5134  137.7144  156.6687 C.ar    1  UNL1        0.0016
     10 C         141.2763  138.2396  157.8485 C.ar    1  UNL1        0.0218
     11 C         143.5651  139.8153  161.3882 C.ar    1  UNL1        0.0173
     12 C         144.3710  141.0739  161.2603 C.ar    1  UNL1        0.0015
     13 C         145.1339  141.5991  162.4402 C.ar    1  UNL1       -0.0000
     14 C         145.0909  140.8656  163.7480 C.ar    1  UNL1        0.0039
     15 C         144.2850  139.6070  163.8759 C.ar    1  UNL1        0.0715
     16 C         143.5221  139.0818  162.6960 C.ar    1  UNL1        0.0053
     17 C         144.2420  138.8736  165.1836 C.3     1  UNL1        0.4186
     18 F         144.1989  138.1402  166.4914 F       1  UNL1       -0.1659
     19 F         145.7344  138.7265  165.1502 F       1  UNL1       -0.1659
     20 F         142.7496  139.0207  165.2170 F       1  UNL1       -0.1659
     21 N         139.6346  141.1374  156.9454 N.am    1  UNL1       -0.2987
     22 C         139.5621  140.1764  158.0949 C.2     1  UNL1        0.2459
     23 O         138.2511  139.9211  158.7775 O.2     1  UNL1       -0.2701
     24 H         140.4951  141.3050  156.4974 H       1  UNL1        0.1500
     25 C         138.2560  143.3232  156.6780 C.3     1  UNL1        0.0262
     26 C         138.3961  141.8432  156.4787 C.3     1  UNL1        0.0944
     27 C         137.2976  141.0688  155.8125 C.ar    1  UNL1       -0.0045
     28 C         135.8691  141.4915  155.9881 C.ar    1  UNL1       -0.0027
     29 C         134.7706  140.7172  155.3220 C.ar    1  UNL1       -0.0003
     30 C         135.1005  139.5201  154.4803 C.ar    1  UNL1       -0.0000
     31 C         136.5290  139.0975  154.3047 C.ar    1  UNL1       -0.0003
     32 C         137.6275  139.8719  154.9709 C.ar    1  UNL1       -0.0027
     33 C         141.0880  141.2268  160.4547 C.3     1  UNL1        0.1008
     34 N         140.8575  141.1932  161.9364 N.3     1  UNL1       -0.2688
     35 C         140.0227  140.1035  162.5411 C.3     1  UNL1        0.0738
     36 C         139.7922  140.0700  164.0229 C.3     1  UNL1        0.0333
     37 C         140.3965  141.1262  164.9001 C.3     1  UNL1        0.0603
     38 C         141.2313  142.2159  164.2954 C.3     1  UNL1        0.0333
     39 C         141.4618  142.2494  162.8135 C.3     1  UNL1        0.0738
     40 N         140.1661  141.0926  166.3819 N.3     1  UNL1       -0.2739
     41 C         140.6754  142.2082  167.2456 C.3     1  UNL1        0.0720
     42 C         140.4449  142.1747  168.7273 C.3     1  UNL1        0.0174
     43 C         139.7050  141.0254  169.3455 C.3     1  UNL1        0.0029
     44 C         139.1957  139.9098  168.4818 C.3     1  UNL1        0.0174
     45 C         139.4263  139.9434  166.9999 C.3     1  UNL1        0.0720
@<TRIPOS>BOND
     1    26    25    1
     2    26    21    1
     3    21    22   am
     4    22    23    2
     5    22     1    1
     6     1     2   ar
     7     2    33    1
     8    33    34    1
     9    34    35    1
    10    35    36    1
    11    36    37    1
    12    37    40    1
    13    40    41    1
    14    41    42    1
    15    42    43    1
    16    43    44    1
    17    44    45    1
    18    37    38    1
    19    38    39    1
    20     2     3   ar
    21     3    11    1
    22    11    12   ar
    23    12    13   ar
    24    13    14   ar
    25    14    15   ar
    26    15    17    1
    27    17    18    1
    28    17    19    1
    29    17    20    1
    30    15    16   ar
    31     3     4   ar
    32     4     5   ar
    33     5     6   ar
    34     6     7   ar
    35     7     8   ar
    36     8     9   ar
    37     9    10   ar
    38    26    27    1
    39    27    28   ar
    40    28    29   ar
    41    29    30   ar
    42    30    31   ar
    43    31    32   ar
    44    10     1   ar
    45    32    27   ar
    46    39    34    1
    47    16    11   ar
    48    10     5   ar
    49    45    40    1
    50    21    24    1
@<TRIPOS>MOLECULE
*****
 45 50 0 0 0
SMALL
GASTEIGER

@<TRIPOS>ATOM
      1 C         140.9676  139.9900  158.7685 C.ar    1  UNL1        0.0536
      2 C         141.7516  140.3948  159.9815 C.ar    1  UNL1        0.0159
      3 C         142.9027  139.5526  160.4461 C.ar    1  UNL1        0.0787
      4 N         143.2698  138.3057  159.6975 N.ar    1  UNL1       -0.2456
      5 C         142.4858  137.9008  158.4844 C.ar    1  UNL1        0.0814
      6 C         142.8530  136.6539  157.7359 C.ar    1  UNL1        0.0191
      7 C         142.0690  136.2491  156.5229 C.ar    1  UNL1        0.0015
      8 C         140.9179  137.0913  156.0584 C.ar    1  UNL1        0.0001
      9 C         140.5508  138.3382  156.8069 C.ar    1  UNL1        0.0016
     10 C         141.3347  138.7430  158.0199 C.ar    1  UNL1        0.0218
     11 C         143.6867  139.9575  161.6592 C.ar    1  UNL1        0.0173
     12 C         144.6039  141.1428  161.5982 C.ar    1  UNL1        0.0015
     13 C         145.3878  141.5476  162.8113 C.ar    1  UNL1       -0.0000
     14 C         145.2545  140.7671  164.0853 C.ar    1  UNL1        0.0039
     15 C         144.3373  139.5818  164.1462 C.ar    1  UNL1        0.0715
     16 C         143.5534  139.1770  162.9332 C.ar    1  UNL1        0.0053
     17 C         144.2040  138.8013  165.4202 C.3     1  UNL1        0.4186
     18 F         144.0707  138.0208  166.6942 F       1  UNL1       -0.1659
     19 F         142.7218  139.0313  165.4060 F       1  UNL1       -0.1659
     20 F         145.6862  138.5713  165.4344 F       1  UNL1       -0.1659
     21 N         139.9706  141.7151  157.1011 N.am    1  UNL1       -0.2987
     22 C         139.8165  140.8321  158.3040 C.2     1  UNL1        0.2459
     23 O         138.5115  140.7913  159.0422 O.2     1  UNL1       -0.2701
     24 H         140.8272  141.7418  156.6166 H       1  UNL1        0.1500
     25 C         137.4958  141.9185  156.3368 C.3     1  UNL1        0.0262
     26 C         138.8195  142.5572  156.6366 C.3     1  UNL1        0.0944
     27 C         138.9921  144.0382  156.4719 C.ar    1  UNL1       -0.0045
     28 C         139.9382  144.7867  157.3633 C.ar    1  UNL1       -0.0027
     29 C         140.1108  146.2676  157.1987 C.ar    1  UNL1       -0.0003
     30 C         139.3373  147.0000  156.1426 C.ar    1  UNL1       -0.0000
     31 C         138.3912  146.2515  155.2512 C.ar    1  UNL1       -0.0003
     32 C         138.2186  144.7706  155.4159 C.ar    1  UNL1       -0.0027
     33 C         141.3845  141.6418  160.7301 C.3     1  UNL1        0.1008
     34 N         141.1067  141.5782  162.2028 N.3     1  UNL1       -0.2688
     35 C         141.7373  142.5757  163.1287 C.3     1  UNL1        0.0738
     36 C         141.4595  142.5121  164.6014 C.3     1  UNL1        0.0333
     37 C         140.5512  141.4509  165.1482 C.3     1  UNL1        0.0603
     38 C         139.9207  140.4533  164.2222 C.3     1  UNL1        0.0333
     39 C         140.1985  140.5170  162.7495 C.3     1  UNL1        0.0738
     40 N         140.2735  141.3872  166.6208 N.3     1  UNL1       -0.2739
     41 C         139.6259  140.1693  167.2100 C.3     1  UNL1        0.0720
     42 C         139.3482  140.1056  168.6827 C.3     1  UNL1        0.0174
     43 C         139.7181  141.2600  169.5662 C.3     1  UNL1        0.0029
     44 C         140.3657  142.4780  168.9771 C.3     1  UNL1        0.0174
     45 C         140.6434  142.5416  167.5043 C.3     1  UNL1        0.0720
@<TRIPOS>BOND
     1    26    25    1
     2    26    21    1
     3    21    22   am
     4    22    23    2
     5    22     1    1
     6     1     2   ar
     7     2    33    1
     8    33    34    1
     9    34    35    1
    10    35    36    1
    11    36    37    1
    12    37    40    1
    13    40    41    1
    14    41    42    1
    15    42    43    1
    16    43    44    1
    17    44    45    1
    18    37    38    1
    19    38    39    1
    20     2     3   ar
    21     3    11    1
    22    11    12   ar
    23    12    13   ar
    24    13    14   ar
    25    14    15   ar
    26    15    17    1
    27    17    18    1
    28    17    19    1
    29    17    20    1
    30    15    16   ar
    31     3     4   ar
    32     4     5   ar
    33     5     6   ar
    34     6     7   ar
    35     7     8   ar
    36     8     9   ar
    37     9    10   ar
    38    26    27    1
    39    27    28   ar
    40    28    29   ar
    41    29    30   ar
    42    30    31   ar
    43    31    32   ar
    44    10     1   ar
    45    32    27   ar
    46    39    34    1
    47    16    11   ar
    48    10     5   ar
    49    45    40    1
    50    21    24    1
@<TRIPOS>MOLECULE
*****
 45 50 0 0 0
SMALL
GASTEIGER

@<TRIPOS>ATOM
      1 C         142.3662  141.2566  161.3373 C.ar    1  UNL1        0.0536
      2 C         142.8777  141.3087  159.9282 C.ar    1  UNL1        0.0159
      3 C         143.7026  142.4756  159.4723 C.ar    1  UNL1        0.0787
      4 N         144.0160  143.5905  160.4256 N.ar    1  UNL1       -0.2456
      5 C         143.5044  143.5385  161.8347 C.ar    1  UNL1        0.0814
      6 C         143.8178  144.6535  162.7880 C.ar    1  UNL1        0.0191
      7 C         143.3063  144.6014  164.1971 C.ar    1  UNL1        0.0015
      8 C         142.4814  143.4345  164.6529 C.ar    1  UNL1        0.0001
      9 C         142.1681  142.3195  163.6997 C.ar    1  UNL1        0.0016
     10 C         142.6796  142.3716  162.2906 C.ar    1  UNL1        0.0218
     11 C         144.2141  142.5276  158.0631 C.ar    1  UNL1        0.0173
     12 C         143.2745  142.8349  156.9350 C.ar    1  UNL1        0.0015
     13 C         143.7860  142.8869  155.5259 C.ar    1  UNL1       -0.0000
     14 C         145.2372  142.6316  155.2449 C.ar    1  UNL1        0.0039
     15 C         146.1768  142.3243  156.3730 C.ar    1  UNL1        0.0715
     16 C         145.6653  142.2723  157.7821 C.ar    1  UNL1        0.0053
     17 C         147.6280  142.0690  156.0920 C.3     1  UNL1        0.4186
     18 F         149.0791  141.8137  155.8110 F       1  UNL1       -0.1659
     19 F         147.9983  142.7762  157.3619 F       1  UNL1       -0.1659
     20 F         147.2576  141.3617  154.8221 F       1  UNL1       -0.1659
     21 N         140.0441  140.1622  161.7373 N.am    1  UNL1       -0.2987
     22 C         141.5414  140.0897  161.7931 C.2     1  UNL1        0.2459
     23 O         142.2137  138.8503  162.3047 O.2     1  UNL1       -0.2701
     24 H         139.6028  140.9756  161.4015 H       1  UNL1        0.1500
     25 C         138.7583  137.9693  161.2007 C.3     1  UNL1        0.0262
     26 C         139.2192  138.9952  162.1932 C.3     1  UNL1        0.0944
     27 C         138.8553  138.8542  163.6416 C.ar    1  UNL1       -0.0045
     28 C         138.4594  140.0631  164.4365 C.ar    1  UNL1       -0.0027
     29 C         138.0955  139.9221  165.8848 C.ar    1  UNL1       -0.0003
     30 C         138.1274  138.5722  166.5382 C.ar    1  UNL1       -0.0000
     31 C         138.5233  137.3634  165.7433 C.ar    1  UNL1       -0.0003
     32 C         138.8872  137.5044  164.2949 C.ar    1  UNL1       -0.0027
     33 C         142.5644  140.1937  158.9748 C.3     1  UNL1        0.1008
     34 N         141.2649  140.1904  158.2257 N.3     1  UNL1       -0.2688
     35 C         140.2899  141.3152  158.4104 C.3     1  UNL1        0.0738
     36 C         138.9904  141.3119  157.6612 C.3     1  UNL1        0.0333
     37 C         138.6659  140.1838  156.7273 C.3     1  UNL1        0.0603
     38 C         139.6409  139.0590  156.5426 C.3     1  UNL1        0.0333
     39 C         140.9405  139.0623  157.2918 C.3     1  UNL1        0.0738
     40 N         137.3664  140.1805  155.9782 N.3     1  UNL1       -0.2739
     41 C         137.2146  139.3425  154.7434 C.3     1  UNL1        0.0720
     42 C         135.9151  139.3392  153.9943 C.3     1  UNL1        0.0174
     43 C         134.7673  140.1740  154.4799 C.3     1  UNL1        0.0029
     44 C         134.9191  141.0121  155.7146 C.3     1  UNL1        0.0174
     45 C         136.2187  141.0153  156.4638 C.3     1  UNL1        0.0720
@<TRIPOS>BOND
     1    26    25    1
     2    26    21    1
     3    21    22   am
     4    22    23    2
     5    22     1    1
     6     1     2   ar
     7     2    33    1
     8    33    34    1
     9    34    35    1
    10    35    36    1
    11    36    37    1
    12    37    40    1
    13    40    41    1
    14    41    42    1
    15    42    43    1
    16    43    44    1
    17    44    45    1
    18    37    38    1
    19    38    39    1
    20     2     3   ar
    21     3    11    1
    22    11    12   ar
    23    12    13   ar
    24    13    14   ar
    25    14    15   ar
    26    15    17    1
    27    17    18    1
    28    17    19    1
    29    17    20    1
    30    15    16   ar
    31     3     4   ar
    32     4     5   ar
    33     5     6   ar
    34     6     7   ar
    35     7     8   ar
    36     8     9   ar
    37     9    10   ar
    38    26    27    1
    39    27    28   ar
    40    28    29   ar
    41    29    30   ar
    42    30    31   ar
    43    31    32   ar
    44    10     1   ar
    45    32    27   ar
    46    39    34    1
    47    16    11   ar
    48    10     5   ar
    49    45    40    1
    50    21    24    1
@<TRIPOS>MOLECULE
*****
 45 50 0 0 0
SMALL
GASTEIGER

@<TRIPOS>ATOM
      1 C         140.4394  142.5674  161.1881 C.ar    1  UNL1        0.0536
      2 C         140.5141  142.9895  159.7507 C.ar    1  UNL1        0.0159
      3 C         141.4069  144.1257  159.3481 C.ar    1  UNL1        0.0787
      4 N         142.2251  144.8397  160.3828 N.ar    1  UNL1       -0.2456
      5 C         142.1504  144.4175  161.8204 C.ar    1  UNL1        0.0814
      6 C         142.9685  145.1315  162.8551 C.ar    1  UNL1        0.0191
      7 C         142.8938  144.7094  164.2925 C.ar    1  UNL1        0.0015
      8 C         142.0010  143.5733  164.6952 C.ar    1  UNL1        0.0001
      9 C         141.1829  142.8593  163.6604 C.ar    1  UNL1        0.0016
     10 C         141.2576  143.2814  162.2230 C.ar    1  UNL1        0.0218
     11 C         141.4816  144.5478  157.9106 C.ar    1  UNL1        0.0173
     12 C         142.4449  143.8728  156.9798 C.ar    1  UNL1        0.0015
     13 C         142.5195  144.2949  155.5424 C.ar    1  UNL1       -0.0000
     14 C         141.6309  145.3920  155.0357 C.ar    1  UNL1        0.0039
     15 C         140.6675  146.0670  155.9665 C.ar    1  UNL1        0.0715
     16 C         140.5929  145.6448  157.4039 C.ar    1  UNL1        0.0053
     17 C         139.7789  147.1640  155.4599 C.3     1  UNL1        0.4186
     18 F         138.8902  148.2611  154.9533 F       1  UNL1       -0.1659
     19 F         140.7078  147.3820  154.3025 F       1  UNL1       -0.1659
     20 F         138.8500  146.9461  156.6173 F       1  UNL1       -0.1659
     21 N         140.1406  140.1017  161.9502 N.am    1  UNL1       -0.2987
     22 C         139.5466  141.4313  161.5907 C.2     1  UNL1        0.2459
     23 O         138.0598  141.6248  161.6339 O.2     1  UNL1       -0.2701
     24 H         141.1165  139.9746  161.9219 H       1  UNL1        0.1500
     25 C         138.7396  138.0075  161.3166 C.3     1  UNL1        0.0262
     26 C         139.2478  138.9655  162.3528 C.3     1  UNL1        0.0944
     27 C         138.8631  138.7876  163.7918 C.ar    1  UNL1       -0.0045
     28 C         138.8569  137.4175  164.4025 C.ar    1  UNL1       -0.0027
     29 C         138.4722  137.2395  165.8413 C.ar    1  UNL1       -0.0003
     30 C         138.0938  138.4316  166.6695 C.ar    1  UNL1       -0.0000
     31 C         138.1001  139.8016  166.0589 C.ar    1  UNL1       -0.0003
     32 C         138.4847  139.9796  164.6199 C.ar    1  UNL1       -0.0027
     33 C         139.6959  142.2755  158.7158 C.3     1  UNL1        0.1008
     34 N         140.1471  140.9452  158.1899 N.3     1  UNL1       -0.2688
     35 C         139.1488  139.9952  157.5976 C.3     1  UNL1        0.0738
     36 C         139.6000  138.6649  157.0716 C.3     1  UNL1        0.0333
     37 C         141.0495  138.2846  157.1379 C.3     1  UNL1        0.0603
     38 C         142.0478  139.2346  157.7302 C.3     1  UNL1        0.0333
     39 C         141.5966  140.5650  158.2561 C.3     1  UNL1        0.0738
     40 N         141.5007  136.9543  156.6119 N.3     1  UNL1       -0.2739
     41 C         142.7105  136.2877  157.1967 C.3     1  UNL1        0.0720
     42 C         143.1617  134.9574  156.6707 C.3     1  UNL1        0.0174
     43 C         142.4030  134.2936  155.5599 C.3     1  UNL1        0.0029
     44 C         141.1931  134.9601  154.9752 C.3     1  UNL1        0.0174
     45 C         140.7420  136.2905  155.5012 C.3     1  UNL1        0.0720
@<TRIPOS>BOND
     1    26    25    1
     2    26    21    1
     3    21    22   am
     4    22    23    2
     5    22     1    1
     6     1     2   ar
     7     2    33    1
     8    33    34    1
     9    34    35    1
    10    35    36    1
    11    36    37    1
    12    37    40    1
    13    40    41    1
    14    41    42    1
    15    42    43    1
    16    43    44    1
    17    44    45    1
    18    37    38    1
    19    38    39    1
    20     2     3   ar
    21     3    11    1
    22    11    12   ar
    23    12    13   ar
    24    13    14   ar
    25    14    15   ar
    26    15    17    1
    27    17    18    1
    28    17    19    1
    29    17    20    1
    30    15    16   ar
    31     3     4   ar
    32     4     5   ar
    33     5     6   ar
    34     6     7   ar
    35     7     8   ar
    36     8     9   ar
    37     9    10   ar
    38    26    27    1
    39    27    28   ar
    40    28    29   ar
    41    29    30   ar
    42    30    31   ar
    43    31    32   ar
    44    10     1   ar
    45    32    27   ar
    46    39    34    1
    47    16    11   ar
    48    10     5   ar
    49    45    40    1
    50    21    24    1
@<TRIPOS>MOLECULE
*****
 45 50 0 0 0
SMALL
GASTEIGER

@<TRIPOS>ATOM
      1 C         143.2804  139.9310  157.3088 C.ar    1  UNL1        0.0536
      2 C         142.7922  138.5180  157.1864 C.ar    1  UNL1        0.0159
      3 C         143.3858  137.6062  156.1537 C.ar    1  UNL1        0.0787
      4 N         144.4675  138.1075  155.2435 N.ar    1  UNL1       -0.2456
      5 C         144.9557  139.5206  155.3659 C.ar    1  UNL1        0.0814
      6 C         146.0375  140.0219  154.4556 C.ar    1  UNL1        0.0191
      7 C         146.5256  141.4349  154.5781 C.ar    1  UNL1        0.0015
      8 C         145.9320  142.3466  155.6107 C.ar    1  UNL1        0.0001
      9 C         144.8503  141.8454  156.5210 C.ar    1  UNL1        0.0016
     10 C         144.3622  140.4323  156.3985 C.ar    1  UNL1        0.0218
     11 C         142.8976  136.1931  156.0313 C.ar    1  UNL1        0.0173
     12 C         141.7177  135.8801  155.1596 C.ar    1  UNL1        0.0015
     13 C         141.2296  134.4671  155.0373 C.ar    1  UNL1       -0.0000
     14 C         141.9213  133.3671  155.7866 C.ar    1  UNL1        0.0039
     15 C         143.1012  133.6801  156.6582 C.ar    1  UNL1        0.0715
     16 C         143.5894  135.0931  156.7806 C.ar    1  UNL1        0.0053
     17 C         143.7930  132.5801  157.4075 C.3     1  UNL1        0.4186
     18 F         144.4847  131.4800  158.1568 F       1  UNL1       -0.1659
     19 F         144.8692  133.5392  157.8220 F       1  UNL1       -0.1659
     20 F         142.7168  131.6209  156.9930 F       1  UNL1       -0.1659
     21 N         143.4002  141.0686  159.6415 N.am    1  UNL1       -0.2987
     22 C         142.6868  140.8427  158.3415 C.2     1  UNL1        0.2459
     23 O         141.3799  141.5286  158.0741 O.2     1  UNL1       -0.2701
     24 H         144.2580  140.6185  159.8170 H       1  UNL1        0.1500
     25 C         141.6297  142.8425  160.3259 C.3     1  UNL1        0.0262
     26 C         142.8067  141.9804  160.6742 C.3     1  UNL1        0.0944
     27 C         143.3901  142.0299  162.0552 C.ar    1  UNL1       -0.0045
     28 C         142.5401  142.4610  163.2135 C.ar    1  UNL1       -0.0027
     29 C         143.1235  142.5106  164.5945 C.ar    1  UNL1       -0.0003
     30 C         144.5570  142.1290  164.8172 C.ar    1  UNL1       -0.0000
     31 C         145.4070  141.6979  163.6590 C.ar    1  UNL1       -0.0003
     32 C         144.8236  141.6484  162.2779 C.ar    1  UNL1       -0.0027
     33 C         141.7105  138.0166  158.0966 C.3     1  UNL1        0.1008
     34 N         141.8141  138.2364  159.5768 N.3     1  UNL1       -0.2688
     35 C         140.6854  138.8883  160.3191 C.3     1  UNL1        0.0738
     36 C         140.7890  139.1081  161.7992 C.3     1  UNL1        0.0333
     37 C         142.0214  138.6760  162.5372 C.3     1  UNL1        0.0603
     38 C         143.1502  138.0241  161.7949 C.3     1  UNL1        0.0333
     39 C         143.0465  137.8043  160.3146 C.3     1  UNL1        0.0738
     40 N         142.1250  138.8957  164.0173 N.3     1  UNL1       -0.2739
     41 C         140.9302  139.3693  164.7907 C.3     1  UNL1        0.0720
     42 C         141.0339  139.5891  166.2709 C.3     1  UNL1        0.0174
     43 C         142.3324  139.3353  166.9777 C.3     1  UNL1        0.0029
     44 C         143.5272  138.8617  166.2043 C.3     1  UNL1        0.0174
     45 C         143.4235  138.6419  164.7241 C.3     1  UNL1        0.0720
@<TRIPOS>BOND
     1    26    25    1
     2    26    21    1
     3    21    22   am
     4    22    23    2
     5    22     1    1
     6     1     2   ar
     7     2    33    1
     8    33    34    1
     9    34    35    1
    10    35    36    1
    11    36    37    1
    12    37    40    1
    13    40    41    1
    14    41    42    1
    15    42    43    1
    16    43    44    1
    17    44    45    1
    18    37    38    1
    19    38    39    1
    20     2     3   ar
    21     3    11    1
    22    11    12   ar
    23    12    13   ar
    24    13    14   ar
    25    14    15   ar
    26    15    17    1
    27    17    18    1
    28    17    19    1
    29    17    20    1
    30    15    16   ar
    31     3     4   ar
    32     4     5   ar
    33     5     6   ar
    34     6     7   ar
    35     7     8   ar
    36     8     9   ar
    37     9    10   ar
    38    26    27    1
    39    27    28   ar
    40    28    29   ar
    41    29    30   ar
    42    30    31   ar
    43    31    32   ar
    44    10     1   ar
    45    32    27   ar
    46    39    34    1
    47    16    11   ar
    48    10     5   ar
    49    45    40    1
    50    21    24    1
@<TRIPOS>MOLECULE
*****
 45 50 0 0 0
SMALL
GASTEIGER

@<TRIPOS>ATOM
      1 C         141.9946  143.8758  157.7403 C.ar    1  UNL1        0.0536
      2 C         141.8489  143.8467  159.2329 C.ar    1  UNL1        0.0159
      3 C         140.9594  144.8405  159.9192 C.ar    1  UNL1        0.0787
      4 N         140.2154  145.8634  159.1129 N.ar    1  UNL1       -0.2456
      5 C         140.3610  145.8925  157.6203 C.ar    1  UNL1        0.0814
      6 C         139.6171  146.9155  156.8140 C.ar    1  UNL1        0.0191
      7 C         139.7627  146.9446  155.3214 C.ar    1  UNL1        0.0015
      8 C         140.6523  145.9508  154.6351 C.ar    1  UNL1        0.0001
      9 C         141.3962  144.9278  155.4413 C.ar    1  UNL1        0.0016
     10 C         141.2506  144.8987  156.9339 C.ar    1  UNL1        0.0218
     11 C         140.8138  144.8113  161.4119 C.ar    1  UNL1        0.0173
     12 C         141.9170  145.3341  162.2834 C.ar    1  UNL1        0.0015
     13 C         141.7714  145.3050  163.7760 C.ar    1  UNL1       -0.0000
     14 C         140.5225  144.7530  164.3971 C.ar    1  UNL1        0.0039
     15 C         139.4193  144.2302  163.5256 C.ar    1  UNL1        0.0715
     16 C         139.5650  144.2594  162.0330 C.ar    1  UNL1        0.0053
     17 C         138.1705  143.6783  164.1467 C.3     1  UNL1        0.4186
     18 F         136.9217  143.1263  164.7678 F       1  UNL1       -0.1659
     19 F         138.3080  144.6468  165.2838 F       1  UNL1       -0.1659
     20 F         138.0330  142.7097  163.0095 F       1  UNL1       -0.1659
     21 N         144.3726  143.0670  157.0760 N.am    1  UNL1       -0.2987
     22 C         142.8841  142.8820  157.0540 C.2     1  UNL1        0.2459
     23 O         142.2853  141.7031  156.3457 O.2     1  UNL1       -0.2701
     24 H         144.7656  143.8407  157.5409 H       1  UNL1        0.1500
     25 C         145.2078  140.6251  156.7770 C.3     1  UNL1        0.0262
     26 C         145.2621  142.0732  156.3897 C.3     1  UNL1        0.0944
     27 C         146.2060  142.5276  155.3161 C.ar    1  UNL1       -0.0045
     28 C         147.6191  142.0246  155.2977 C.ar    1  UNL1       -0.0027
     29 C         148.5630  142.4789  154.2241 C.ar    1  UNL1       -0.0003
     30 C         148.0938  143.4362  153.1688 C.ar    1  UNL1       -0.0000
     31 C         146.6808  143.9392  153.1872 C.ar    1  UNL1       -0.0003
     32 C         145.7369  143.4848  154.2608 C.ar    1  UNL1       -0.0027
     33 C         142.5929  142.8237  160.0393 C.3     1  UNL1        0.1008
     34 N         141.8618  141.9854  161.0456 N.3     1  UNL1       -0.2688
     35 C         142.3665  141.8955  162.4553 C.3     1  UNL1        0.0738
     36 C         141.6353  141.0572  163.4616 C.3     1  UNL1        0.0333
     37 C         140.3994  140.3089  163.0582 C.3     1  UNL1        0.0603
     38 C         139.8947  140.3988  161.6485 C.3     1  UNL1        0.0333
     39 C         140.6260  141.2372  160.6422 C.3     1  UNL1        0.0738
     40 N         139.6683  139.4706  164.0645 N.3     1  UNL1       -0.2739
     41 C         139.7388  137.9742  163.9872 C.3     1  UNL1        0.0720
     42 C         139.0077  137.1360  164.9935 C.3     1  UNL1        0.0174
     43 C         138.2060  137.7940  166.0772 C.3     1  UNL1        0.0029
     44 C         138.1354  139.2904  166.1545 C.3     1  UNL1        0.0174
     45 C         138.8666  140.1287  165.1481 C.3     1  UNL1        0.0720
@<TRIPOS>BOND
     1    26    25    1
     2    26    21    1
     3    21    22   am
     4    22    23    2
     5    22     1    1
     6     1     2   ar
     7     2    33    1
     8    33    34    1
     9    34    35    1
    10    35    36    1
    11    36    37    1
    12    37    40    1
    13    40    41    1
    14    41    42    1
    15    42    43    1
    16    43    44    1
    17    44    45    1
    18    37    38    1
    19    38    39    1
    20     2     3   ar
    21     3    11    1
    22    11    12   ar
    23    12    13   ar
    24    13    14   ar
    25    14    15   ar
    26    15    17    1
    27    17    18    1
    28    17    19    1
    29    17    20    1
    30    15    16   ar
    31     3     4   ar
    32     4     5   ar
    33     5     6   ar
    34     6     7   ar
    35     7     8   ar
    36     8     9   ar
    37     9    10   ar
    38    26    27    1
    39    27    28   ar
    40    28    29   ar
    41    29    30   ar
    42    30    31   ar
    43    31    32   ar
    44    10     1   ar
    45    32    27   ar
    46    39    34    1
    47    16    11   ar
    48    10     5   ar
    49    45    40    1
    50    21    24    1
@<TRIPOS>MOLECULE
*****
 45 50 0 0 0
SMALL
GASTEIGER

@<TRIPOS>ATOM
      1 C         143.3434  140.3523  158.3515 C.ar    1  UNL1        0.0536
      2 C         142.9482  141.2171  159.5117 C.ar    1  UNL1        0.0159
      3 C         143.6869  142.4946  159.7807 C.ar    1  UNL1        0.0787
      4 N         144.8208  142.9073  158.8897 N.ar    1  UNL1       -0.2456
      5 C         145.2160  142.0425  157.7295 C.ar    1  UNL1        0.0814
      6 C         146.3499  142.4552  156.8384 C.ar    1  UNL1        0.0191
      7 C         146.7450  141.5904  155.6783 C.ar    1  UNL1        0.0015
      8 C         146.0063  140.3129  155.4092 C.ar    1  UNL1        0.0001
      9 C         144.8725  139.9002  156.3003 C.ar    1  UNL1        0.0016
     10 C         144.4773  140.7650  157.4604 C.ar    1  UNL1        0.0218
     11 C         143.2917  143.3594  160.9409 C.ar    1  UNL1        0.0173
     12 C         144.1960  143.4756  162.1320 C.ar    1  UNL1        0.0015
     13 C         143.8007  144.3403  163.2922 C.ar    1  UNL1       -0.0000
     14 C         142.5013  145.0889  163.2612 C.ar    1  UNL1        0.0039
     15 C         141.5970  144.9727  162.0701 C.ar    1  UNL1        0.0715
     16 C         141.9922  144.1080  160.9100 C.ar    1  UNL1        0.0053
     17 C         140.2975  145.7213  162.0391 C.3     1  UNL1        0.4186
     18 F         138.9980  146.4699  162.0081 F       1  UNL1       -0.1659
     19 F         140.1021  145.4426  163.5000 F       1  UNL1       -0.1659
     20 F         140.4929  146.0000  160.5782 F       1  UNL1       -0.1659
     21 N         141.7622  138.9413  156.8486 N.am    1  UNL1       -0.2987
     22 C         142.6047  139.0749  158.0825 C.2     1  UNL1        0.2459
     23 O         142.7085  137.9310  159.0472 O.2     1  UNL1       -0.2701
     24 H         141.6940  139.6921  156.2154 H       1  UNL1        0.1500
     25 C         139.5636  137.5583  156.9075 C.3     1  UNL1        0.0262
     26 C         141.0235  137.6638  156.5795 C.3     1  UNL1        0.0944
     27 C         141.7447  136.4919  155.9824 C.ar    1  UNL1       -0.0045
     28 C         143.2443  136.4664  155.9597 C.ar    1  UNL1       -0.0027
     29 C         143.9656  135.2946  155.3627 C.ar    1  UNL1       -0.0003
     30 C         143.1872  134.1481  154.7883 C.ar    1  UNL1       -0.0000
     31 C         141.6876  134.1735  154.8111 C.ar    1  UNL1       -0.0003
     32 C         140.9664  135.3455  155.4081 C.ar    1  UNL1       -0.0027
     33 C         141.8143  140.8044  160.4028 C.3     1  UNL1        0.1008
     34 N         141.9971  140.7909  161.8915 N.3     1  UNL1       -0.2688
     35 C         143.1997  140.1265  162.4935 C.3     1  UNL1        0.0738
     36 C         143.3824  140.1129  163.9822 C.3     1  UNL1        0.0333
     37 C         142.3626  140.7638  164.8691 C.3     1  UNL1        0.0603
     38 C         141.1600  141.4282  164.2671 C.3     1  UNL1        0.0333
     39 C         140.9773  141.4417  162.7783 C.3     1  UNL1        0.0738
     40 N         142.5453  140.7502  166.3578 N.3     1  UNL1       -0.2739
     41 C         142.8842  142.0185  167.0835 C.3     1  UNL1        0.0720
     42 C         143.0669  142.0049  168.5722 C.3     1  UNL1        0.0174
     43 C         142.9108  140.7230  169.3354 C.3     1  UNL1        0.0029
     44 C         142.5720  139.4547  168.6097 C.3     1  UNL1        0.0174
     45 C         142.3892  139.4683  167.1209 C.3     1  UNL1        0.0720
@<TRIPOS>BOND
     1    26    25    1
     2    26    21    1
     3    21    22   am
     4    22    23    2
     5    22     1    1
     6     1     2   ar
     7     2    33    1
     8    33    34    1
     9    34    35    1
    10    35    36    1
    11    36    37    1
    12    37    40    1
    13    40    41    1
    14    41    42    1
    15    42    43    1
    16    43    44    1
    17    44    45    1
    18    37    38    1
    19    38    39    1
    20     2     3   ar
    21     3    11    1
    22    11    12   ar
    23    12    13   ar
    24    13    14   ar
    25    14    15   ar
    26    15    17    1
    27    17    18    1
    28    17    19    1
    29    17    20    1
    30    15    16   ar
    31     3     4   ar
    32     4     5   ar
    33     5     6   ar
    34     6     7   ar
    35     7     8   ar
    36     8     9   ar
    37     9    10   ar
    38    26    27    1
    39    27    28   ar
    40    28    29   ar
    41    29    30   ar
    42    30    31   ar
    43    31    32   ar
    44    10     1   ar
    45    32    27   ar
    46    39    34    1
    47    16    11   ar
    48    10     5   ar
    49    45    40    1
    50    21    24    1
@<TRIPOS>MOLECULE
*****
 45 50 0 0 0
SMALL
GASTEIGER

@<TRIPOS>ATOM
      1 C         141.4547  142.0630  161.1160 C.ar    1  UNL1        0.0536
      2 C         141.9309  142.0727  159.6937 C.ar    1  UNL1        0.0159
      3 C         143.1751  142.8248  159.3244 C.ar    1  UNL1        0.0787
      4 N         143.9431  143.5671  160.3775 N.ar    1  UNL1       -0.2456
      5 C         143.4669  143.5574  161.8000 C.ar    1  UNL1        0.0814
      6 C         144.2349  144.2997  162.8530 C.ar    1  UNL1        0.0191
      7 C         143.7587  144.2900  164.2754 C.ar    1  UNL1        0.0015
      8 C         142.5145  143.5380  164.6446 C.ar    1  UNL1        0.0001
      9 C         141.7465  142.7956  163.5915 C.ar    1  UNL1        0.0016
     10 C         142.2227  142.8053  162.1692 C.ar    1  UNL1        0.0218
     11 C         143.6513  142.8345  157.9020 C.ar    1  UNL1        0.0173
     12 C         142.7647  143.3718  156.8180 C.ar    1  UNL1        0.0015
     13 C         143.2409  143.3815  155.3956 C.ar    1  UNL1       -0.0000
     14 C         144.6037  142.8538  155.0573 C.ar    1  UNL1        0.0039
     15 C         145.4903  142.3165  156.1414 C.ar    1  UNL1        0.0715
     16 C         145.0141  142.3068  157.5637 C.ar    1  UNL1        0.0053
     17 C         146.8530  141.7889  155.8031 C.3     1  UNL1        0.4186
     18 F         148.2158  141.2612  155.4648 F       1  UNL1       -0.1659
     19 F         147.4267  143.1651  155.9675 F       1  UNL1       -0.1659
     20 F         146.2794  140.4127  155.6387 F       1  UNL1       -0.1659
     21 N         140.3086  139.9051  161.9992 N.am    1  UNL1       -0.2987
     22 C         140.2105  141.3109  161.4853 C.2     1  UNL1        0.2459
     23 O         138.8682  141.9646  161.3406 O.2     1  UNL1       -0.2701
     24 H         141.1896  139.4760  162.0941 H       1  UNL1        0.1500
     25 C         138.1588  138.6278  161.2942 C.3     1  UNL1        0.0262
     26 C         139.0644  139.1530  162.3685 C.3     1  UNL1        0.0944
     27 C         138.7257  138.9262  163.8121 C.ar    1  UNL1       -0.0045
     28 C         138.7198  137.5343  164.3713 C.ar    1  UNL1       -0.0027
     29 C         138.3812  137.3075  165.8148 C.ar    1  UNL1       -0.0003
     30 C         138.0484  138.4725  166.6992 C.ar    1  UNL1       -0.0000
     31 C         138.0544  139.8643  166.1400 C.ar    1  UNL1       -0.0003
     32 C         138.3930  140.0912  164.6964 C.ar    1  UNL1       -0.0027
     33 C         141.1629  141.3303  158.6405 C.3     1  UNL1        0.1008
     34 N         141.6107  139.9659  158.2075 N.3     1  UNL1       -0.2688
     35 C         142.1898  139.0130  159.2108 C.3     1  UNL1        0.0738
     36 C         142.6377  137.6485  158.7778 C.3     1  UNL1        0.0333
     37 C         142.5065  137.2369  157.3413 C.3     1  UNL1        0.0603
     38 C         141.9274  138.1897  156.3380 C.3     1  UNL1        0.0333
     39 C         141.4795  139.5543  156.7711 C.3     1  UNL1        0.0738
     40 N         142.9543  135.8724  156.9083 N.3     1  UNL1       -0.2739
     41 C         143.5260  134.9166  157.9131 C.3     1  UNL1        0.0720
     42 C         143.9738  133.5521  157.4801 C.3     1  UNL1        0.0174
     43 C         143.8501  133.1434  156.0421 C.3     1  UNL1        0.0029
     44 C         143.2785  134.0991  155.0373 C.3     1  UNL1        0.0174
     45 C         142.8306  135.4637  155.4704 C.3     1  UNL1        0.0720
@<TRIPOS>BOND
     1    26    25    1
     2    26    21    1
     3    21    22   am
     4    22    23    2
     5    22     1    1
     6     1     2   ar
     7     2    33    1
     8    33    34    1
     9    34    35    1
    10    35    36    1
    11    36    37    1
    12    37    40    1
    13    40    41    1
    14    41    42    1
    15    42    43    1
    16    43    44    1
    17    44    45    1
    18    37    38    1
    19    38    39    1
    20     2     3   ar
    21     3    11    1
    22    11    12   ar
    23    12    13   ar
    24    13    14   ar
    25    14    15   ar
    26    15    17    1
    27    17    18    1
    28    17    19    1
    29    17    20    1
    30    15    16   ar
    31     3     4   ar
    32     4     5   ar
    33     5     6   ar
    34     6     7   ar
    35     7     8   ar
    36     8     9   ar
    37     9    10   ar
    38    26    27    1
    39    27    28   ar
    40    28    29   ar
    41    29    30   ar
    42    30    31   ar
    43    31    32   ar
    44    10     1   ar
    45    32    27   ar
    46    39    34    1
    47    16    11   ar
    48    10     5   ar
    49    45    40    1
    50    21    24    1
