@<TRIPOS>MOLECULE
*****
 36 40 0 0 0
SMALL
GASTEIGER

@<TRIPOS>ATOM
      1 C         139.9173  139.1501  165.2236 C.ar    1  UNL1        0.0041
      2 C         139.3479  137.7920  164.9386 C.ar    1  UNL1        0.0002
      3 C         138.8005  137.4788  163.5776 C.ar    1  UNL1        0.0015
      4 C         138.8227  138.5237  162.5016 C.ar    1  UNL1        0.0192
      5 C         139.3921  139.8818  162.7867 C.ar    1  UNL1        0.0856
      6 N         139.4142  140.9267  161.7107 N.ar    1  UNL1       -0.2264
      7 C         139.9837  142.2848  161.9957 C.ar    1  UNL1        0.1666
      8 N         140.5310  142.5981  163.3567 N.ar    1  UNL1       -0.2120
      9 C         140.5089  141.5532  164.4327 C.ar    1  UNL1        0.1318
     10 C         139.9394  140.1950  164.1476 C.ar    1  UNL1        0.0491
     11 C         141.5594  140.0899  169.3066 C.ar    1  UNL1        0.0531
     12 C         140.1084  140.3266  169.0091 C.ar    1  UNL1        0.0045
     13 C         139.5610  140.0134  167.6481 C.ar    1  UNL1        0.0001
     14 C         140.4647  139.4634  166.5846 C.ar    1  UNL1        0.0001
     15 C         141.9157  139.2266  166.8821 C.ar    1  UNL1        0.0001
     16 C         142.4631  139.5399  168.2431 C.ar    1  UNL1        0.0045
     17 N         143.4162  139.8150  171.1028 N.am    1  UNL1       -0.3253
     18 C         142.1068  140.4031  170.6675 C.2     1  UNL1        0.2427
     19 O         141.3448  141.3045  171.5932 O.2     1  UNL1       -0.2704
     20 H         143.7755  140.0205  171.9961 H       1  UNL1        0.1453
     21 H         143.9163  139.2233  170.4953 H       1  UNL1        0.1453
     22 C         140.0058  143.3297  160.9197 C.ar    1  UNL1        0.0741
     23 C         139.9585  144.7837  161.2852 C.ar    1  UNL1        0.1052
     24 N         139.9806  145.8286  160.2092 N.ar    1  UNL1       -0.2223
     25 C         140.0500  145.4195  158.7678 C.ar    1  UNL1        0.1989
     26 N         140.0973  143.9654  158.4022 N.ar    1  UNL1       -0.2223
     27 C         140.0752  142.9205  159.4782 C.ar    1  UNL1        0.1052
     28 N         141.0562  141.8664  165.7937 N.pl3   1  UNL1       -0.3131
     29 H         140.5398  141.6309  166.5981 H       1  UNL1        0.1485
     30 C         142.3905  142.5384  165.9291 C.3     1  UNL1        0.1348
     31 C         143.4563  142.3038  164.9000 C.ar    1  UNL1        0.0788
     32 C         144.2165  141.0108  164.8890 C.ar    1  UNL1        0.0165
     33 C         145.2823  140.7761  163.8599 C.ar    1  UNL1        0.0029
     34 C         145.5879  141.8345  162.8419 C.ar    1  UNL1        0.0207
     35 C         144.8277  143.1276  162.8529 C.ar    1  UNL1        0.0985
     36 N         143.7619  143.3622  163.8820 N.ar    1  UNL1       -0.2464
@<TRIPOS>BOND
     1    17    18   am
     2    18    19    2
     3    18    11    1
     4    11    12   ar
     5    12    13   ar
     6    13    14   ar
     7    14     1    1
     8     1     2   ar
     9     2     3   ar
    10     3     4   ar
    11     4     5   ar
    12     5     6   ar
    13     6     7   ar
    14     7    22    1
    15    22    23   ar
    16    23    24   ar
    17    24    25   ar
    18    25    26   ar
    19    26    27   ar
    20     7     8   ar
    21     8     9   ar
    22     9    28    1
    23    28    30    1
    24    30    31    1
    25    31    32   ar
    26    32    33   ar
    27    33    34   ar
    28    34    35   ar
    29    35    36   ar
    30     9    10   ar
    31    14    15   ar
    32    15    16   ar
    33    16    11   ar
    34    10     1   ar
    35    10     5   ar
    36    27    22   ar
    37    36    31   ar
    38    17    20    1
    39    17    21    1
    40    28    29    1
@<TRIPOS>MOLECULE
*****
 36 40 0 0 0
SMALL
GASTEIGER

@<TRIPOS>ATOM
      1 C         141.2200  139.5705  165.3083 C.ar    1  UNL1        0.0041
      2 C         140.4339  138.3036  165.4723 C.ar    1  UNL1        0.0002
      3 C         140.2750  137.3642  164.3137 C.ar    1  UNL1        0.0015
      4 C         140.9023  137.6918  162.9912 C.ar    1  UNL1        0.0192
      5 C         141.6885  138.9586  162.8272 C.ar    1  UNL1        0.0856
      6 N         142.3158  139.2862  161.5046 N.ar    1  UNL1       -0.2264
      7 C         143.1019  140.5531  161.3406 C.ar    1  UNL1        0.1666
      8 N         143.2608  141.4925  162.4992 N.ar    1  UNL1       -0.2120
      9 C         142.6335  141.1650  163.8218 C.ar    1  UNL1        0.1318
     10 C         141.8473  139.8980  163.9857 C.ar    1  UNL1        0.0491
     11 C         141.6967  142.3887  168.7841 C.ar    1  UNL1        0.0531
     12 C         140.5037  142.5051  167.8823 C.ar    1  UNL1        0.0045
     13 C         140.3448  141.5657  166.7237 C.ar    1  UNL1        0.0001
     14 C         141.3789  140.5099  166.4669 C.ar    1  UNL1        0.0001
     15 C         142.5719  140.3935  167.3687 C.ar    1  UNL1        0.0001
     16 C         142.7308  141.3328  168.5273 C.ar    1  UNL1        0.0045
     17 N         143.1302  143.3347  170.7334 N.am    1  UNL1       -0.3253
     18 C         141.8556  143.3280  169.9427 C.2     1  UNL1        0.2427
     19 O         140.7399  144.2607  170.3105 O.2     1  UNL1       -0.2704
     20 H         143.2345  143.9512  171.4938 H       1  UNL1        0.1453
     21 H         143.8625  142.7225  170.4920 H       1  UNL1        0.1453
     22 C         143.7292  140.8806  160.0180 C.ar    1  UNL1        0.0741
     23 C         143.7690  139.8482  158.9306 C.ar    1  UNL1        0.1052
     24 N         144.3963  140.1757  157.6080 N.ar    1  UNL1       -0.2223
     25 C         144.9839  141.5357  157.3729 C.ar    1  UNL1        0.1989
     26 N         144.9441  142.5682  158.4603 N.ar    1  UNL1       -0.2223
     27 C         144.3168  142.2406  159.7829 C.ar    1  UNL1        0.1052
     28 N         142.7924  142.1043  164.9804 N.pl3   1  UNL1       -0.3131
     29 H         142.9153  141.7479  165.8898 H       1  UNL1        0.1485
     30 C         142.7639  143.5868  164.7533 C.3     1  UNL1        0.1348
     31 C         141.6260  144.2084  163.9992 C.ar    1  UNL1        0.0788
     32 C         140.2572  144.2545  164.6110 C.ar    1  UNL1        0.0165
     33 C         139.1192  144.8761  163.8569 C.ar    1  UNL1        0.0029
     34 C         139.3501  145.4516  162.4910 C.ar    1  UNL1        0.0207
     35 C         140.7189  145.4054  161.8793 C.ar    1  UNL1        0.0985
     36 N         141.8569  144.7838  162.6334 N.ar    1  UNL1       -0.2464
@<TRIPOS>BOND
     1    17    18   am
     2    18    19    2
     3    18    11    1
     4    11    12   ar
     5    12    13   ar
     6    13    14   ar
     7    14     1    1
     8     1     2   ar
     9     2     3   ar
    10     3     4   ar
    11     4     5   ar
    12     5     6   ar
    13     6     7   ar
    14     7    22    1
    15    22    23   ar
    16    23    24   ar
    17    24    25   ar
    18    25    26   ar
    19    26    27   ar
    20     7     8   ar
    21     8     9   ar
    22     9    28    1
    23    28    30    1
    24    30    31    1
    25    31    32   ar
    26    32    33   ar
    27    33    34   ar
    28    34    35   ar
    29    35    36   ar
    30     9    10   ar
    31    14    15   ar
    32    15    16   ar
    33    16    11   ar
    34    10     1   ar
    35    10     5   ar
    36    27    22   ar
    37    36    31   ar
    38    17    20    1
    39    17    21    1
    40    28    29    1
@<TRIPOS>MOLECULE
*****
 36 40 0 0 0
SMALL
GASTEIGER

@<TRIPOS>ATOM
      1 C         139.8528  142.6446  165.7505 C.ar    1  UNL1        0.0041
      2 C         139.2488  143.9883  166.0328 C.ar    1  UNL1        0.0002
      3 C         138.5638  144.7481  164.9358 C.ar    1  UNL1        0.0015
      4 C         138.4828  144.1642  163.5565 C.ar    1  UNL1        0.0192
      5 C         139.0868  142.8206  163.2741 C.ar    1  UNL1        0.0856
      6 N         139.0058  142.2367  161.8948 N.ar    1  UNL1       -0.2264
      7 C         139.6098  140.8931  161.6125 C.ar    1  UNL1        0.1666
      8 N         140.2948  140.1332  162.7095 N.ar    1  UNL1       -0.2120
      9 C         140.3758  140.7170  164.0888 C.ar    1  UNL1        0.1318
     10 C         139.7718  142.0608  164.3711 C.ar    1  UNL1        0.0491
     11 C         141.9078  140.3650  169.0415 C.ar    1  UNL1        0.0531
     12 C         142.6463  141.4385  168.2984 C.ar    1  UNL1        0.0045
     13 C         141.9613  142.1984  167.2014 C.ar    1  UNL1        0.0001
     14 C         140.5378  141.8847  166.8475 C.ar    1  UNL1        0.0001
     15 C         139.7993  140.8112  167.5906 C.ar    1  UNL1        0.0001
     16 C         140.4843  140.0514  168.6875 C.ar    1  UNL1        0.0045
     17 N         142.8378  140.2608  171.4651 N.am    1  UNL1       -0.3253
     18 C         142.5928  139.6052  170.1385 C.2     1  UNL1        0.2427
     19 O         143.0328  138.1897  169.9088 O.2     1  UNL1       -0.2704
     20 H         143.2873  139.7621  172.1851 H       1  UNL1        0.1453
     21 H         142.5490  141.1899  171.6159 H       1  UNL1        0.1453
     22 C         139.5288  140.3092  160.2331 C.ar    1  UNL1        0.0741
     23 C         138.3216  140.5646  159.3803 C.ar    1  UNL1        0.1052
     24 N         138.2406  139.9807  158.0010 N.ar    1  UNL1       -0.2223
     25 C         139.3668  139.1415  157.4745 C.ar    1  UNL1        0.1989
     26 N         140.5741  138.8861  158.3273 N.ar    1  UNL1       -0.2223
     27 C         140.6551  139.4699  159.7066 C.ar    1  UNL1        0.1052
     28 N         141.0608  139.9572  165.1858 N.pl3   1  UNL1       -0.3131
     29 H         140.6006  139.8086  166.0433 H       1  UNL1        0.1485
     30 C         142.4471  139.4238  164.9763 C.3     1  UNL1        0.1348
     31 C         143.4462  140.2200  164.1904 C.ar    1  UNL1        0.0788
     32 C         144.2179  141.3210  164.8555 C.ar    1  UNL1        0.0165
     33 C         145.2172  142.1173  164.0697 C.ar    1  UNL1        0.0029
     34 C         145.4446  141.8126  162.6187 C.ar    1  UNL1        0.0207
     35 C         144.6729  140.7116  161.9535 C.ar    1  UNL1        0.0985
     36 N         143.6737  139.9153  162.7394 N.ar    1  UNL1       -0.2464
@<TRIPOS>BOND
     1    17    18   am
     2    18    19    2
     3    18    11    1
     4    11    12   ar
     5    12    13   ar
     6    13    14   ar
     7    14     1    1
     8     1     2   ar
     9     2     3   ar
    10     3     4   ar
    11     4     5   ar
    12     5     6   ar
    13     6     7   ar
    14     7    22    1
    15    22    23   ar
    16    23    24   ar
    17    24    25   ar
    18    25    26   ar
    19    26    27   ar
    20     7     8   ar
    21     8     9   ar
    22     9    28    1
    23    28    30    1
    24    30    31    1
    25    31    32   ar
    26    32    33   ar
    27    33    34   ar
    28    34    35   ar
    29    35    36   ar
    30     9    10   ar
    31    14    15   ar
    32    15    16   ar
    33    16    11   ar
    34    10     1   ar
    35    10     5   ar
    36    27    22   ar
    37    36    31   ar
    38    17    20    1
    39    17    21    1
    40    28    29    1
@<TRIPOS>MOLECULE
*****
 36 40 0 0 0
SMALL
GASTEIGER

@<TRIPOS>ATOM
      1 C         143.0722  140.5459  165.7630 C.ar    1  UNL1        0.0041
      2 C         143.9007  139.2957  165.7891 C.ar    1  UNL1        0.0002
      3 C         144.5736  138.8157  164.5374 C.ar    1  UNL1        0.0015
      4 C         144.4180  139.5858  163.2596 C.ar    1  UNL1        0.0192
      5 C         143.5895  140.8359  163.2335 C.ar    1  UNL1        0.0856
      6 N         143.4340  141.6061  161.9557 N.ar    1  UNL1       -0.2264
      7 C         142.6055  142.8562  161.9296 C.ar    1  UNL1        0.1666
      8 N         141.9326  143.3363  163.1813 N.ar    1  UNL1       -0.2120
      9 C         142.0882  142.5662  164.4591 C.ar    1  UNL1        0.1318
     10 C         142.9167  141.3160  164.4852 C.ar    1  UNL1        0.0491
     11 C         141.0535  141.9863  169.5181 C.ar    1  UNL1        0.0531
     12 C         140.4193  140.9063  168.6925 C.ar    1  UNL1        0.0045
     13 C         141.0922  140.4262  167.4408 C.ar    1  UNL1        0.0001
     14 C         142.3993  141.0260  167.0147 C.ar    1  UNL1        0.0001
     15 C         143.0336  142.1059  167.8402 C.ar    1  UNL1        0.0001
     16 C         142.3607  142.5861  169.0919 C.ar    1  UNL1        0.0045
     17 N         139.5995  143.7468  170.7573 N.am    1  UNL1       -0.3253
     18 C         140.3807  142.4664  170.7697 C.2     1  UNL1        0.2427
     19 O         140.4890  141.6661  172.0338 O.2     1  UNL1       -0.2704
     20 H         139.1578  144.0620  171.5788 H       1  UNL1        0.1453
     21 H         139.5284  144.2721  169.9277 H       1  UNL1        0.1453
     22 C         142.4500  143.6263  160.6518 C.ar    1  UNL1        0.0741
     23 C         141.5151  144.7977  160.5912 C.ar    1  UNL1        0.1052
     24 N         141.3595  145.5679  159.3134 N.ar    1  UNL1       -0.2223
     25 C         142.1388  145.1665  158.0962 C.ar    1  UNL1        0.1989
     26 N         143.0738  143.9950  158.1568 N.ar    1  UNL1       -0.2223
     27 C         143.2293  143.2249  159.4346 C.ar    1  UNL1        0.1052
     28 N         141.4153  143.0463  165.7108 N.pl3   1  UNL1       -0.3131
     29 H         141.9493  143.2306  166.5171 H       1  UNL1        0.1485
     30 C         139.9287  143.2455  165.7341 C.3     1  UNL1        0.1348
     31 C         139.0644  142.5621  164.7163 C.ar    1  UNL1        0.0788
     32 C         138.7098  141.1144  164.8842 C.ar    1  UNL1        0.0165
     33 C         137.8455  140.4309  163.8664 C.ar    1  UNL1        0.0029
     34 C         137.3358  141.1952  162.6806 C.ar    1  UNL1        0.0207
     35 C         137.6905  142.6431  162.5127 C.ar    1  UNL1        0.0985
     36 N         138.5548  143.3264  163.5305 N.ar    1  UNL1       -0.2464
@<TRIPOS>BOND
     1    17    18   am
     2    18    19    2
     3    18    11    1
     4    11    12   ar
     5    12    13   ar
     6    13    14   ar
     7    14     1    1
     8     1     2   ar
     9     2     3   ar
    10     3     4   ar
    11     4     5   ar
    12     5     6   ar
    13     6     7   ar
    14     7    22    1
    15    22    23   ar
    16    23    24   ar
    17    24    25   ar
    18    25    26   ar
    19    26    27   ar
    20     7     8   ar
    21     8     9   ar
    22     9    28    1
    23    28    30    1
    24    30    31    1
    25    31    32   ar
    26    32    33   ar
    27    33    34   ar
    28    34    35   ar
    29    35    36   ar
    30     9    10   ar
    31    14    15   ar
    32    15    16   ar
    33    16    11   ar
    34    10     1   ar
    35    10     5   ar
    36    27    22   ar
    37    36    31   ar
    38    17    20    1
    39    17    21    1
    40    28    29    1
@<TRIPOS>MOLECULE
*****
 36 40 0 0 0
SMALL
GASTEIGER

@<TRIPOS>ATOM
      1 C         139.0586  141.9034  164.7353 C.ar    1  UNL1        0.0041
      2 C         138.0783  143.0295  164.5907 C.ar    1  UNL1        0.0002
      3 C         137.6522  143.4822  163.2256 C.ar    1  UNL1        0.0015
      4 C         138.2065  142.8089  162.0052 C.ar    1  UNL1        0.0192
      5 C         139.1868  141.6829  162.1498 C.ar    1  UNL1        0.0856
      6 N         139.7411  141.0096  160.9294 N.ar    1  UNL1       -0.2264
      7 C         140.7214  139.8835  161.0740 C.ar    1  UNL1        0.1666
      8 N         141.1475  139.4307  162.4391 N.ar    1  UNL1       -0.2120
      9 C         140.5933  140.1041  163.6596 C.ar    1  UNL1        0.1318
     10 C         139.6129  141.2301  163.5149 C.ar    1  UNL1        0.0491
     11 C         140.3370  140.5452  168.8306 C.ar    1  UNL1        0.0531
     12 C         139.3321  139.7459  168.0551 C.ar    1  UNL1        0.0045
     13 C         138.9060  140.1987  166.6900 C.ar    1  UNL1        0.0001
     14 C         139.4847  141.4507  166.1004 C.ar    1  UNL1        0.0001
     15 C         140.4896  142.2499  166.8760 C.ar    1  UNL1        0.0001
     16 C         140.9157  141.7972  168.2410 C.ar    1  UNL1        0.0045
     17 N         139.7583  139.4943  171.1350 N.am    1  UNL1       -0.3253
     18 C         140.7631  140.0925  170.1957 C.2     1  UNL1        0.2427
     19 O         142.1941  140.2379  170.6214 O.2     1  UNL1       -0.2704
     20 H         140.0380  139.1971  172.0310 H       1  UNL1        0.1453
     21 H         138.8191  139.3988  170.8556 H       1  UNL1        0.1453
     22 C         141.2757  139.2102  159.8536 C.ar    1  UNL1        0.0741
     23 C         142.7589  139.1517  159.6377 C.ar    1  UNL1        0.1052
     24 N         143.3131  138.4784  158.4172 N.ar    1  UNL1       -0.2223
     25 C         142.3842  137.8636  157.4127 C.ar    1  UNL1        0.1989
     26 N         140.9009  137.9221  157.6286 N.ar    1  UNL1       -0.2223
     27 C         140.3467  138.5954  158.8490 C.ar    1  UNL1        0.1052
     28 N         141.0193  139.6513  165.0246 N.pl3   1  UNL1       -0.3131
     29 H         140.3429  139.4716  165.7171 H       1  UNL1        0.1485
     30 C         142.4760  139.4724  165.3348 C.3     1  UNL1        0.1348
     31 C         143.4749  140.4824  164.8531 C.ar    1  UNL1        0.0788
     32 C         143.5306  141.8421  165.4840 C.ar    1  UNL1        0.0165
     33 C         144.5296  142.8521  165.0023 C.ar    1  UNL1        0.0029
     34 C         145.4728  142.5024  163.8897 C.ar    1  UNL1        0.0207
     35 C         145.4171  141.1426  163.2588 C.ar    1  UNL1        0.0985
     36 N         144.4182  140.1327  163.7405 N.ar    1  UNL1       -0.2464
@<TRIPOS>BOND
     1    17    18   am
     2    18    19    2
     3    18    11    1
     4    11    12   ar
     5    12    13   ar
     6    13    14   ar
     7    14     1    1
     8     1     2   ar
     9     2     3   ar
    10     3     4   ar
    11     4     5   ar
    12     5     6   ar
    13     6     7   ar
    14     7    22    1
    15    22    23   ar
    16    23    24   ar
    17    24    25   ar
    18    25    26   ar
    19    26    27   ar
    20     7     8   ar
    21     8     9   ar
    22     9    28    1
    23    28    30    1
    24    30    31    1
    25    31    32   ar
    26    32    33   ar
    27    33    34   ar
    28    34    35   ar
    29    35    36   ar
    30     9    10   ar
    31    14    15   ar
    32    15    16   ar
    33    16    11   ar
    34    10     1   ar
    35    10     5   ar
    36    27    22   ar
    37    36    31   ar
    38    17    20    1
    39    17    21    1
    40    28    29    1
@<TRIPOS>MOLECULE
*****
 36 40 0 0 0
SMALL
GASTEIGER

@<TRIPOS>ATOM
      1 C         140.2770  139.7966  166.5033 C.ar    1  UNL1        0.0041
      2 C         138.9975  139.1760  166.9804 C.ar    1  UNL1        0.0002
      3 C         138.1531  138.3762  166.0332 C.ar    1  UNL1        0.0015
      4 C         138.5882  138.1970  164.6089 C.ar    1  UNL1        0.0192
      5 C         139.8676  138.8176  164.1318 C.ar    1  UNL1        0.0856
      6 N         140.3027  138.6385  162.7075 N.ar    1  UNL1       -0.2264
      7 C         141.5822  139.2591  162.2304 C.ar    1  UNL1        0.1666
      8 N         142.4267  140.0589  163.1776 N.ar    1  UNL1       -0.2120
      9 C         141.9916  140.2381  164.6019 C.ar    1  UNL1        0.1318
     10 C         140.7121  139.6174  165.0790 C.ar    1  UNL1        0.0491
     11 C         142.8104  142.1961  169.3449 C.ar    1  UNL1        0.0531
     12 C         141.6879  142.8563  168.6005 C.ar    1  UNL1        0.0045
     13 C         140.8434  142.0564  167.6533 C.ar    1  UNL1        0.0001
     14 C         141.1215  140.5965  167.4505 C.ar    1  UNL1        0.0001
     15 C         142.2440  139.9363  168.1949 C.ar    1  UNL1        0.0001
     16 C         143.0885  140.7360  169.1421 C.ar    1  UNL1        0.0045
     17 N         143.0140  143.7247  171.4357 N.am    1  UNL1       -0.3253
     18 C         143.6549  142.9958  170.2921 C.2     1  UNL1        0.2427
     19 O         145.1403  143.0668  170.0956 O.2     1  UNL1       -0.2704
     20 H         143.5683  144.2496  172.0574 H       1  UNL1        0.1453
     21 H         142.0391  143.6781  171.5647 H       1  UNL1        0.1453
     22 C         142.0173  139.0799  160.8061 C.ar    1  UNL1        0.0741
     23 C         141.0539  138.5431  159.7895 C.ar    1  UNL1        0.1052
     24 N         141.4890  138.3639  158.3652 N.ar    1  UNL1       -0.2223
     25 C         142.8875  138.7216  157.9575 C.ar    1  UNL1        0.1989
     26 N         143.8510  139.2584  158.9742 N.ar    1  UNL1       -0.2223
     27 C         143.4159  139.4376  160.3985 C.ar    1  UNL1        0.1052
     28 N         142.8361  141.0379  165.5491 N.pl3   1  UNL1       -0.3131
     29 H         143.0206  140.6953  166.4534 H       1  UNL1        0.1485
     30 C         143.3993  142.3598  165.1185 C.3     1  UNL1        0.1348
     31 C         142.6091  143.2504  164.2062 C.ar    1  UNL1        0.0788
     32 C         141.3449  143.8928  164.6953 C.ar    1  UNL1        0.0165
     33 C         140.5546  144.7834  163.7830 C.ar    1  UNL1        0.0029
     34 C         141.0285  145.0317  162.3816 C.ar    1  UNL1        0.0207
     35 C         142.2928  144.3892  161.8926 C.ar    1  UNL1        0.0985
     36 N         143.0830  143.4987  162.8049 N.ar    1  UNL1       -0.2464
@<TRIPOS>BOND
     1    17    18   am
     2    18    19    2
     3    18    11    1
     4    11    12   ar
     5    12    13   ar
     6    13    14   ar
     7    14     1    1
     8     1     2   ar
     9     2     3   ar
    10     3     4   ar
    11     4     5   ar
    12     5     6   ar
    13     6     7   ar
    14     7    22    1
    15    22    23   ar
    16    23    24   ar
    17    24    25   ar
    18    25    26   ar
    19    26    27   ar
    20     7     8   ar
    21     8     9   ar
    22     9    28    1
    23    28    30    1
    24    30    31    1
    25    31    32   ar
    26    32    33   ar
    27    33    34   ar
    28    34    35   ar
    29    35    36   ar
    30     9    10   ar
    31    14    15   ar
    32    15    16   ar
    33    16    11   ar
    34    10     1   ar
    35    10     5   ar
    36    27    22   ar
    37    36    31   ar
    38    17    20    1
    39    17    21    1
    40    28    29    1
@<TRIPOS>MOLECULE
*****
 36 40 0 0 0
SMALL
GASTEIGER

@<TRIPOS>ATOM
      1 C         143.4014  141.2693  164.9222 C.ar    1  UNL1        0.0041
      2 C         144.7237  141.9768  164.9499 C.ar    1  UNL1        0.0002
      3 C         145.5324  142.1046  163.6931 C.ar    1  UNL1        0.0015
      4 C         145.0188  141.5249  162.4086 C.ar    1  UNL1        0.0192
      5 C         143.6965  140.8173  162.3808 C.ar    1  UNL1        0.0856
      6 N         143.1829  140.2376  161.0963 N.ar    1  UNL1       -0.2264
      7 C         141.8606  139.5300  161.0685 C.ar    1  UNL1        0.1666
      8 N         141.0518  139.4022  162.3254 N.ar    1  UNL1       -0.2120
      9 C         141.5654  139.9819  163.6099 C.ar    1  UNL1        0.1318
     10 C         142.8878  140.6895  163.6376 C.ar    1  UNL1        0.0491
     11 C         140.9752  140.8857  168.6927 C.ar    1  UNL1        0.0531
     12 C         140.8946  142.1395  167.8733 C.ar    1  UNL1        0.0045
     13 C         141.7033  142.2673  166.6164 C.ar    1  UNL1        0.0001
     14 C         142.5927  141.1414  166.1791 C.ar    1  UNL1        0.0001
     15 C         142.6733  139.8876  166.9985 C.ar    1  UNL1        0.0001
     16 C         141.8646  139.7597  168.2553 C.ar    1  UNL1        0.0045
     17 N         140.2841  139.5243  170.7948 N.am    1  UNL1       -0.3253
     18 C         140.1665  140.7578  169.9495 C.2     1  UNL1        0.2427
     19 O         139.2402  141.8635  170.3611 O.2     1  UNL1       -0.2704
     20 H         139.7533  139.4403  171.6197 H       1  UNL1        0.1453
     21 H         140.8921  138.7986  170.5246 H       1  UNL1        0.1453
     22 C         141.3469  138.9503  159.7840 C.ar    1  UNL1        0.0741
     23 C         139.8795  138.9923  159.4759 C.ar    1  UNL1        0.1052
     24 N         139.3659  138.4126  158.1914 N.ar    1  UNL1       -0.2223
     25 C         140.3197  137.7908  157.2149 C.ar    1  UNL1        0.1989
     26 N         141.7872  137.7487  157.5229 N.ar    1  UNL1       -0.2223
     27 C         142.3008  138.3284  158.8074 C.ar    1  UNL1        0.1052
     28 N         140.7567  139.8541  164.8668 N.pl3   1  UNL1       -0.3131
     29 H         141.1938  139.5907  165.7087 H       1  UNL1        0.1485
     30 C         139.2821  140.1276  164.8409 C.3     1  UNL1        0.1348
     31 C         138.7650  141.3948  164.2269 C.ar    1  UNL1        0.0788
     32 C         138.6297  142.6326  165.0633 C.ar    1  UNL1        0.0165
     33 C         138.1126  143.8998  164.4494 C.ar    1  UNL1        0.0029
     34 C         137.7308  143.9291  162.9991 C.ar    1  UNL1        0.0207
     35 C         137.8660  142.6913  162.1627 C.ar    1  UNL1        0.0985
     36 N         138.3831  141.4241  162.7766 N.ar    1  UNL1       -0.2464
@<TRIPOS>BOND
     1    17    18   am
     2    18    19    2
     3    18    11    1
     4    11    12   ar
     5    12    13   ar
     6    13    14   ar
     7    14     1    1
     8     1     2   ar
     9     2     3   ar
    10     3     4   ar
    11     4     5   ar
    12     5     6   ar
    13     6     7   ar
    14     7    22    1
    15    22    23   ar
    16    23    24   ar
    17    24    25   ar
    18    25    26   ar
    19    26    27   ar
    20     7     8   ar
    21     8     9   ar
    22     9    28    1
    23    28    30    1
    24    30    31    1
    25    31    32   ar
    26    32    33   ar
    27    33    34   ar
    28    34    35   ar
    29    35    36   ar
    30     9    10   ar
    31    14    15   ar
    32    15    16   ar
    33    16    11   ar
    34    10     1   ar
    35    10     5   ar
    36    27    22   ar
    37    36    31   ar
    38    17    20    1
    39    17    21    1
    40    28    29    1
@<TRIPOS>MOLECULE
*****
 36 40 0 0 0
SMALL
GASTEIGER

@<TRIPOS>ATOM
      1 C         140.5133  143.0452  165.7246 C.ar    1  UNL1        0.0041
      2 C         139.4141  144.0297  165.9941 C.ar    1  UNL1        0.0002
      3 C         138.8865  144.8876  164.8825 C.ar    1  UNL1        0.0015
      4 C         139.4581  144.7611  163.5015 C.ar    1  UNL1        0.0192
      5 C         140.5573  143.7766  163.2320 C.ar    1  UNL1        0.0856
      6 N         141.1289  143.6501  161.8510 N.ar    1  UNL1       -0.2264
      7 C         142.2280  142.6656  161.5815 C.ar    1  UNL1        0.1666
      8 N         142.7557  141.8076  162.6931 N.ar    1  UNL1       -0.2120
      9 C         142.1841  141.9342  164.0741 C.ar    1  UNL1        0.1318
     10 C         141.0848  142.9187  164.3436 C.ar    1  UNL1        0.0491
     11 C         142.0961  140.4714  169.0593 C.ar    1  UNL1        0.0531
     12 C         140.7844  140.1380  168.4126 C.ar    1  UNL1        0.0045
     13 C         140.2568  140.9960  167.3010 C.ar    1  UNL1        0.0001
     14 C         141.0409  142.1873  166.8362 C.ar    1  UNL1        0.0001
     15 C         142.3526  142.5206  167.4830 C.ar    1  UNL1        0.0001
     16 C         142.8802  141.6627  168.5945 C.ar    1  UNL1        0.0045
     17 N         142.7544  140.1761  171.5551 N.am    1  UNL1       -0.3253
     18 C         142.6238  139.6135  170.1709 C.2     1  UNL1        0.2427
     19 O         143.0207  138.1929  169.8981 O.2     1  UNL1       -0.2704
     20 H         143.1007  139.6131  172.2847 H       1  UNL1        0.1453
     21 H         142.4939  141.1085  171.7342 H       1  UNL1        0.1453
     22 C         142.7996  142.5391  160.2005 C.ar    1  UNL1        0.0741
     23 C         142.5692  143.6244  159.1910 C.ar    1  UNL1        0.1052
     24 N         143.1407  143.4978  157.8100 N.ar    1  UNL1       -0.2223
     25 C         143.9428  142.2860  157.4384 C.ar    1  UNL1        0.1989
     26 N         144.1733  141.2006  158.4478 N.ar    1  UNL1       -0.2223
     27 C         143.6017  141.3272  159.8289 C.ar    1  UNL1        0.1052
     28 N         142.7116  141.0763  165.1857 N.pl3   1  UNL1       -0.3131
     29 H         143.0528  141.4931  166.0097 H       1  UNL1        0.1485
     30 C         142.7194  139.5832  165.0417 C.3     1  UNL1        0.1348
     31 C         141.5707  138.8882  164.3727 C.ar    1  UNL1        0.0788
     32 C         140.3668  138.4887  165.1733 C.ar    1  UNL1        0.0165
     33 C         139.2181  137.7937  164.5043 C.ar    1  UNL1        0.0029
     34 C         139.2733  137.4983  163.0347 C.ar    1  UNL1        0.0207
     35 C         140.4773  137.8978  162.2341 C.ar    1  UNL1        0.0985
     36 N         141.6260  138.5928  162.9031 N.ar    1  UNL1       -0.2464
@<TRIPOS>BOND
     1    17    18   am
     2    18    19    2
     3    18    11    1
     4    11    12   ar
     5    12    13   ar
     6    13    14   ar
     7    14     1    1
     8     1     2   ar
     9     2     3   ar
    10     3     4   ar
    11     4     5   ar
    12     5     6   ar
    13     6     7   ar
    14     7    22    1
    15    22    23   ar
    16    23    24   ar
    17    24    25   ar
    18    25    26   ar
    19    26    27   ar
    20     7     8   ar
    21     8     9   ar
    22     9    28    1
    23    28    30    1
    24    30    31    1
    25    31    32   ar
    26    32    33   ar
    27    33    34   ar
    28    34    35   ar
    29    35    36   ar
    30     9    10   ar
    31    14    15   ar
    32    15    16   ar
    33    16    11   ar
    34    10     1   ar
    35    10     5   ar
    36    27    22   ar
    37    36    31   ar
    38    17    20    1
    39    17    21    1
    40    28    29    1
@<TRIPOS>MOLECULE
*****
 36 40 0 0 0
SMALL
GASTEIGER

@<TRIPOS>ATOM
      1 C         140.5247  138.8175  164.3866 C.ar    1  UNL1        0.0041
      2 C         141.0505  137.4377  164.1232 C.ar    1  UNL1        0.0002
      3 C         141.4629  137.0445  162.7356 C.ar    1  UNL1        0.0015
      4 C         141.3493  138.0312  161.6115 C.ar    1  UNL1        0.0192
      5 C         140.8235  139.4110  161.8750 C.ar    1  UNL1        0.0856
      6 N         140.7100  140.3977  160.7509 N.ar    1  UNL1       -0.2264
      7 C         140.1841  141.7775  161.0143 C.ar    1  UNL1        0.1666
      8 N         139.7717  142.1708  162.4020 N.ar    1  UNL1       -0.2120
      9 C         139.8853  141.1841  163.5261 C.ar    1  UNL1        0.1318
     10 C         140.4111  139.8042  163.2625 C.ar    1  UNL1        0.0491
     11 C         139.2876  139.9972  168.5494 C.ar    1  UNL1        0.0531
     12 C         140.7129  140.1672  168.1141 C.ar    1  UNL1        0.0045
     13 C         141.1253  139.7739  166.7264 C.ar    1  UNL1        0.0001
     14 C         140.1123  139.2108  165.7742 C.ar    1  UNL1        0.0001
     15 C         138.6870  139.0408  166.2096 C.ar    1  UNL1        0.0001
     16 C         138.2746  139.4340  167.5971 C.ar    1  UNL1        0.0045
     17 N         139.4740  141.6054  170.5813 N.am    1  UNL1       -0.3253
     18 C         138.8752  140.3904  169.9369 C.2     1  UNL1        0.2427
     19 O         137.8640  139.5687  170.6800 O.2     1  UNL1       -0.2704
     20 H         139.2033  141.8635  171.4920 H       1  UNL1        0.1453
     21 H         140.1377  142.1447  170.0936 H       1  UNL1        0.1453
     22 C         140.0706  142.7642  159.8902 C.ar    1  UNL1        0.0741
     23 C         140.1002  144.2360  160.1783 C.ar    1  UNL1        0.1052
     24 N         139.9867  145.2226  159.0542 N.ar    1  UNL1       -0.2223
     25 C         139.8435  144.7376  157.6420 C.ar    1  UNL1        0.1989
     26 N         139.8139  143.2657  157.3540 N.ar    1  UNL1       -0.2223
     27 C         139.9274  142.2791  158.4781 C.ar    1  UNL1        0.1052
     28 N         139.4729  141.5773  164.9136 N.pl3   1  UNL1       -0.3131
     29 H         138.8797  140.9902  165.4358 H       1  UNL1        0.1485
     30 C         139.9645  142.8650  165.5056 C.3     1  UNL1        0.1348
     31 C         141.2710  143.4474  165.0543 C.ar    1  UNL1        0.0788
     32 C         142.5611  142.7976  165.4583 C.ar    1  UNL1        0.0165
     33 C         143.8678  143.3800  165.0071 C.ar    1  UNL1        0.0029
     34 C         143.8842  144.6122  164.1518 C.ar    1  UNL1        0.0207
     35 C         142.5939  145.2620  163.7479 C.ar    1  UNL1        0.0985
     36 N         141.2874  144.6796  164.1991 N.ar    1  UNL1       -0.2464
@<TRIPOS>BOND
     1    17    18   am
     2    18    19    2
     3    18    11    1
     4    11    12   ar
     5    12    13   ar
     6    13    14   ar
     7    14     1    1
     8     1     2   ar
     9     2     3   ar
    10     3     4   ar
    11     4     5   ar
    12     5     6   ar
    13     6     7   ar
    14     7    22    1
    15    22    23   ar
    16    23    24   ar
    17    24    25   ar
    18    25    26   ar
    19    26    27   ar
    20     7     8   ar
    21     8     9   ar
    22     9    28    1
    23    28    30    1
    24    30    31    1
    25    31    32   ar
    26    32    33   ar
    27    33    34   ar
    28    34    35   ar
    29    35    36   ar
    30     9    10   ar
    31    14    15   ar
    32    15    16   ar
    33    16    11   ar
    34    10     1   ar
    35    10     5   ar
    36    27    22   ar
    37    36    31   ar
    38    17    20    1
    39    17    21    1
    40    28    29    1
