@<TRIPOS>MOLECULE
*****
 35 38 0 0 0
SMALL
GASTEIGER

@<TRIPOS>ATOM
      1 C         140.2080  139.8557  160.5306 C.ar    1  UNL1        0.1665
      2 N         139.6156  139.1946  161.7396 N.ar    1  UNL1       -0.1866
      3 C         139.1470  140.0275  162.8958 C.ar    1  UNL1        0.2814
      4 O         138.5546  139.3664  164.1050 O.2     1  UNL1       -0.2651
      5 C         139.2710  141.5214  162.8429 C.ar    1  UNL1        0.0699
      6 C         138.8024  142.3543  163.9992 C.ar    1  UNL1        0.0096
      7 C         138.9264  143.8482  163.9463 C.ar    1  UNL1        0.0777
      8 C         139.5188  144.5093  162.7371 C.ar    1  UNL1        0.0797
      9 C         139.9874  143.6764  161.5810 C.ar    1  UNL1        0.2960
     10 C         139.8634  142.1825  161.6338 C.ar    1  UNL1        0.1059
     11 S         140.3319  141.3496  160.4777 S.2     1  UNL1       -0.0466
     12 N         141.6136  137.3572  157.0618 N.3     1  UNL1       -0.2698
     13 C         140.1621  137.7135  157.1901 C.3     1  UNL1        0.0939
     14 C         139.6936  138.5463  158.3463 C.3     1  UNL1        0.1100
     15 N         140.6765  139.0229  159.3743 N.pl3   1  UNL1       -0.2852
     16 C         142.1279  138.6666  159.2460 C.3     1  UNL1        0.1100
     17 C         142.5965  137.8338  158.0898 C.3     1  UNL1        0.0939
     18 C         142.0821  136.5244  155.9056 C.3     1  UNL1        0.0722
     19 N         142.7632  130.5990  156.5578 N.2     1  UNL1       -0.0918
     20 C         142.5929  132.0803  156.3947 C.2     1  UNL1        0.0748
     21 C         143.4096  133.0251  157.2257 C.3     1  UNL1        0.0447
     22 C         143.2393  134.5065  157.0626 C.3     1  UNL1        0.0074
     23 C         142.2523  135.0431  156.0686 C.3     1  UNL1        0.0167
     24 C         141.4357  134.0982  155.2377 C.3     1  UNL1        0.0074
     25 C         141.6060  132.6169  155.4007 C.3     1  UNL1        0.0447
     26 O         143.7501  130.0624  157.5518 O.2     1  UNL1       -0.3779
     27 C         143.7114  128.5385  159.6557 C.3     1  UNL1        0.0543
     28 C         143.5284  128.7173  158.1777 C.3     1  UNL1        0.2386
     29 C         138.4578  144.6810  165.1025 C.3     1  UNL1        0.4188
     30 F         137.9894  145.5140  166.2587 F       1  UNL1       -0.1659
     31 F         139.8678  145.1277  165.3521 F       1  UNL1       -0.1659
     32 F         137.0478  144.2344  164.8529 F       1  UNL1       -0.1659
     33 N         140.5798  144.3375  160.3719 N.pl3   1  UNL1        0.0814
     34 O         142.0292  144.7238  160.3628 O.2     1  UNL1        0.0415
     35 O         139.7229  144.6123  159.1718 O.co2   1  UNL1       -0.5760
@<TRIPOS>UNITY_ATOM_ATTR
33 1
charge 1
35 1
charge -1
@<TRIPOS>BOND
     1    27    28    1
     2    28    26    1
     3    26    19    1
     4    19    20    2
     5    20    21    1
     6    21    22    1
     7    22    23    1
     8    23    18    1
     9    18    12    1
    10    12    13    1
    11    13    14    1
    12    14    15    1
    13    15     1    1
    14     1     2   ar
    15     2     3   ar
    16     3     4    2
    17     3     5   ar
    18     5     6   ar
    19     6     7   ar
    20     7    29    1
    21    29    30    1
    22    29    31    1
    23    29    32    1
    24     7     8   ar
    25     8     9   ar
    26     9    33    1
    27    33    34    2
    28    33    35    1
    29     9    10   ar
    30    10    11   ar
    31    15    16    1
    32    16    17    1
    33    23    24    1
    34    24    25    1
    35    25    20    1
    36    17    12    1
    37    11     1   ar
    38    10     5   ar
@<TRIPOS>MOLECULE
*****
 35 38 0 0 0
SMALL
GASTEIGER

@<TRIPOS>ATOM
      1 C         141.5896  143.6369  161.8386 C.ar    1  UNL1        0.1665
      2 N         140.5940  144.7571  161.8987 N.ar    1  UNL1       -0.1866
      3 C         140.2527  145.5245  160.6559 C.ar    1  UNL1        0.2814
      4 O         139.2570  146.6449  160.7159 O.2     1  UNL1       -0.2651
      5 C         140.9070  145.1717  159.3531 C.ar    1  UNL1        0.0699
      6 C         140.5656  145.9391  158.1102 C.ar    1  UNL1        0.0096
      7 C         141.2199  145.5863  156.8074 C.ar    1  UNL1        0.0777
      8 C         142.2156  144.4659  156.7474 C.ar    1  UNL1        0.0797
      9 C         142.5569  143.6985  157.9902 C.ar    1  UNL1        0.2960
     10 C         141.9026  144.0514  159.2930 C.ar    1  UNL1        0.1059
     11 S         142.2439  143.2840  160.5358 S.2     1  UNL1       -0.0466
     12 N         142.6137  141.3345  165.5670 N.3     1  UNL1       -0.2698
     13 C         142.7756  142.8255  165.5380 C.3     1  UNL1        0.0939
     14 C         142.4342  143.5929  164.2952 C.3     1  UNL1        0.1100
     15 N         141.9310  142.8694  163.0814 N.pl3   1  UNL1       -0.2852
     16 C         141.7691  141.3785  163.1104 C.3     1  UNL1        0.1100
     17 C         142.1105  140.6110  164.3532 C.3     1  UNL1        0.0939
     18 C         142.9551  140.5671  166.8098 C.3     1  UNL1        0.0722
     19 N         138.7340  139.5196  170.9431 N.2     1  UNL1       -0.0918
     20 C         139.7893  139.7815  169.9098 C.2     1  UNL1        0.0748
     21 C         139.3958  140.0519  168.4879 C.3     1  UNL1        0.0447
     22 C         140.4511  140.3138  167.4545 C.3     1  UNL1        0.0074
     23 C         141.8998  140.3053  167.8431 C.3     1  UNL1        0.0167
     24 C         142.2933  140.0348  169.2652 C.3     1  UNL1        0.0074
     25 C         141.2380  139.7729  170.2985 C.3     1  UNL1        0.0447
     26 O         137.2852  139.5282  170.5545 O.2     1  UNL1       -0.3779
     27 C         136.2063  137.5606  171.8639 C.3     1  UNL1        0.0543
     28 C         136.2490  139.0180  171.5116 C.3     1  UNL1        0.2386
     29 C         140.8786  146.3537  155.5646 C.3     1  UNL1        0.4188
     30 F         140.5372  147.1211  154.3218 F       1  UNL1       -0.1659
     31 F         139.8076  147.0900  156.3134 F       1  UNL1       -0.1659
     32 F         141.9496  145.6174  154.8158 F       1  UNL1       -0.1659
     33 N         143.5526  142.5783  157.9301 N.pl3   1  UNL1        0.0814
     34 O         144.9977  142.8420  158.2340 O.2     1  UNL1        0.0415
     35 O         143.1032  141.1942  157.5662 O.co2   1  UNL1       -0.5760
@<TRIPOS>UNITY_ATOM_ATTR
33 1
charge 1
35 1
charge -1
@<TRIPOS>BOND
     1    27    28    1
     2    28    26    1
     3    26    19    1
     4    19    20    2
     5    20    21    1
     6    21    22    1
     7    22    23    1
     8    23    18    1
     9    18    12    1
    10    12    13    1
    11    13    14    1
    12    14    15    1
    13    15     1    1
    14     1     2   ar
    15     2     3   ar
    16     3     4    2
    17     3     5   ar
    18     5     6   ar
    19     6     7   ar
    20     7    29    1
    21    29    30    1
    22    29    31    1
    23    29    32    1
    24     7     8   ar
    25     8     9   ar
    26     9    33    1
    27    33    34    2
    28    33    35    1
    29     9    10   ar
    30    10    11   ar
    31    15    16    1
    32    16    17    1
    33    23    24    1
    34    24    25    1
    35    25    20    1
    36    17    12    1
    37    11     1   ar
    38    10     5   ar
@<TRIPOS>MOLECULE
*****
 35 38 0 0 0
SMALL
GASTEIGER

@<TRIPOS>ATOM
      1 C         142.3145  139.0856  163.5545 C.ar    1  UNL1        0.1665
      2 N         143.3572  138.4368  164.4158 N.ar    1  UNL1       -0.1866
      3 C         143.2892  138.5745  165.9078 C.ar    1  UNL1        0.2814
      4 O         144.3319  137.9258  166.7692 O.2     1  UNL1       -0.2651
      5 C         142.1786  139.3611  166.5386 C.ar    1  UNL1        0.0699
      6 C         142.1107  139.4988  168.0308 C.ar    1  UNL1        0.0096
      7 C         141.0000  140.2853  168.6616 C.ar    1  UNL1        0.0777
      8 C         139.9573  140.9341  167.8002 C.ar    1  UNL1        0.0797
      9 C         140.0253  140.7963  166.3081 C.ar    1  UNL1        0.2960
     10 C         141.1359  140.0098  165.6773 C.ar    1  UNL1        0.1059
     11 S         141.2039  139.8721  164.1852 S.2     1  UNL1       -0.0466
     12 N         142.5183  138.6724  159.0780 N.3     1  UNL1       -0.2698
     13 C         143.7465  139.0472  159.8534 C.3     1  UNL1        0.0939
     14 C         143.6786  139.1849  161.3455 C.3     1  UNL1        0.1100
     15 N         142.3824  138.9479  162.0623 N.pl3   1  UNL1       -0.2852
     16 C         141.1542  138.5731  161.2870 C.3     1  UNL1        0.1100
     17 C         141.2222  138.4354  159.7948 C.3     1  UNL1        0.0939
     18 C         142.5863  138.5347  157.5859 C.3     1  UNL1        0.0722
     19 N         141.5723  133.2089  155.0155 N.2     1  UNL1       -0.0918
     20 C         141.8258  134.5404  155.6581 C.2     1  UNL1        0.0748
     21 C         142.7986  134.6516  156.7944 C.3     1  UNL1        0.0447
     22 C         143.0522  135.9831  157.4370 C.3     1  UNL1        0.0074
     23 C         142.3328  137.2033  156.9434 C.3     1  UNL1        0.0167
     24 C         141.3599  137.0919  155.8071 C.3     1  UNL1        0.0074
     25 C         141.1064  135.7605  155.1645 C.3     1  UNL1        0.0447
     26 O         142.2917  131.9888  155.5092 O.2     1  UNL1       -0.3779
     27 C         144.8051  131.5609  156.0091 C.3     1  UNL1        0.0543
     28 C         143.6798  131.6895  155.0257 C.3     1  UNL1        0.2386
     29 C         140.9321  140.4230  170.1537 C.3     1  UNL1        0.4188
     30 F         140.8641  140.5607  171.6458 F       1  UNL1       -0.1659
     31 F         141.4282  139.0157  170.3062 F       1  UNL1       -0.1659
     32 F         140.4360  141.8303  170.0012 F       1  UNL1       -0.1659
     33 N         138.9826  141.4451  165.4468 N.pl3   1  UNL1        0.0814
     34 O         137.8487  140.6299  164.8993 O.2     1  UNL1        0.0415
     35 O         139.0737  142.9091  165.1330 O.co2   1  UNL1       -0.5760
@<TRIPOS>UNITY_ATOM_ATTR
33 1
charge 1
35 1
charge -1
@<TRIPOS>BOND
     1    27    28    1
     2    28    26    1
     3    26    19    1
     4    19    20    2
     5    20    21    1
     6    21    22    1
     7    22    23    1
     8    23    18    1
     9    18    12    1
    10    12    13    1
    11    13    14    1
    12    14    15    1
    13    15     1    1
    14     1     2   ar
    15     2     3   ar
    16     3     4    2
    17     3     5   ar
    18     5     6   ar
    19     6     7   ar
    20     7    29    1
    21    29    30    1
    22    29    31    1
    23    29    32    1
    24     7     8   ar
    25     8     9   ar
    26     9    33    1
    27    33    34    2
    28    33    35    1
    29     9    10   ar
    30    10    11   ar
    31    15    16    1
    32    16    17    1
    33    23    24    1
    34    24    25    1
    35    25    20    1
    36    17    12    1
    37    11     1   ar
    38    10     5   ar
@<TRIPOS>MOLECULE
*****
 35 38 0 0 0
SMALL
GASTEIGER

@<TRIPOS>ATOM
      1 C         140.4985  138.8821  162.4385 C.ar    1  UNL1        0.1665
      2 N         139.6901  137.8993  163.2326 N.ar    1  UNL1       -0.1866
      3 C         139.3744  138.1778  164.6723 C.ar    1  UNL1        0.2814
      4 O         138.5660  137.1950  165.4665 O.2     1  UNL1       -0.2651
      5 C         139.8670  139.4389  165.3178 C.ar    1  UNL1        0.0699
      6 C         139.5512  139.7174  166.7576 C.ar    1  UNL1        0.0096
      7 C         140.0439  140.9785  167.4032 C.ar    1  UNL1        0.0777
      8 C         140.8523  141.9613  166.6089 C.ar    1  UNL1        0.0797
      9 C         141.1680  141.6829  165.1693 C.ar    1  UNL1        0.2960
     10 C         140.6754  140.4217  164.5237 C.ar    1  UNL1        0.1059
     11 S         140.9911  140.1433  163.0840 S.2     1  UNL1       -0.0466
     12 N         141.4459  138.0469  158.1193 N.3     1  UNL1       -0.2698
     13 C         142.5419  138.0355  159.1434 C.3     1  UNL1        0.0939
     14 C         142.2261  138.3139  160.5830 C.3     1  UNL1        0.1100
     15 N         140.8143  138.6037  160.9987 N.pl3   1  UNL1       -0.2852
     16 C         139.7183  138.6150  159.9747 C.3     1  UNL1        0.1100
     17 C         140.0341  138.3366  158.5350 C.3     1  UNL1        0.0939
     18 C         141.7617  137.7685  156.6796 C.3     1  UNL1        0.0722
     19 N         143.0820  132.1853  154.9234 N.2     1  UNL1       -0.0918
     20 C         142.7519  133.5810  155.3624 C.2     1  UNL1        0.0748
     21 C         143.7851  134.4099  156.0663 C.3     1  UNL1        0.0447
     22 C         143.4550  135.8058  156.5054 C.3     1  UNL1        0.0074
     23 C         142.0918  136.3727  156.2406 C.3     1  UNL1        0.0167
     24 C         141.0586  135.5437  155.5366 C.3     1  UNL1        0.0074
     25 C         141.3887  134.1480  155.0976 C.3     1  UNL1        0.0447
     26 O         144.4453  131.6184  155.1882 O.2     1  UNL1       -0.3779
     27 C         144.6537  131.1815  157.7408 C.3     1  UNL1        0.0543
     28 C         144.6538  130.6693  156.3310 C.3     1  UNL1        0.2386
     29 C         139.7281  141.2570  168.8428 C.3     1  UNL1        0.4188
     30 F         139.4124  141.5355  170.2826 F       1  UNL1       -0.1659
     31 F         140.1842  142.6753  168.6686 F       1  UNL1       -0.1659
     32 F         139.2721  139.8387  169.0171 F       1  UNL1       -0.1659
     33 N         141.9764  142.6656  164.3751 N.pl3   1  UNL1        0.0814
     34 O         141.2912  143.7761  163.6352 O.2     1  UNL1        0.0415
     35 O         143.4700  142.5380  164.3209 O.co2   1  UNL1       -0.5760
@<TRIPOS>UNITY_ATOM_ATTR
33 1
charge 1
35 1
charge -1
@<TRIPOS>BOND
     1    27    28    1
     2    28    26    1
     3    26    19    1
     4    19    20    2
     5    20    21    1
     6    21    22    1
     7    22    23    1
     8    23    18    1
     9    18    12    1
    10    12    13    1
    11    13    14    1
    12    14    15    1
    13    15     1    1
    14     1     2   ar
    15     2     3   ar
    16     3     4    2
    17     3     5   ar
    18     5     6   ar
    19     6     7   ar
    20     7    29    1
    21    29    30    1
    22    29    31    1
    23    29    32    1
    24     7     8   ar
    25     8     9   ar
    26     9    33    1
    27    33    34    2
    28    33    35    1
    29     9    10   ar
    30    10    11   ar
    31    15    16    1
    32    16    17    1
    33    23    24    1
    34    24    25    1
    35    25    20    1
    36    17    12    1
    37    11     1   ar
    38    10     5   ar
@<TRIPOS>MOLECULE
*****
 35 38 0 0 0
SMALL
GASTEIGER

@<TRIPOS>ATOM
      1 C         141.9695  144.2109  159.2448 C.ar    1  UNL1        0.1665
      2 N         142.0156  144.8345  160.6082 N.ar    1  UNL1       -0.1866
      3 C         142.6025  144.0750  161.7608 C.ar    1  UNL1        0.2814
      4 O         142.6487  144.6986  163.1243 O.2     1  UNL1       -0.2651
      5 C         143.1434  142.6918  161.5500 C.ar    1  UNL1        0.0699
      6 C         143.7303  141.9323  162.7028 C.ar    1  UNL1        0.0096
      7 C         144.2712  140.5492  162.4920 C.ar    1  UNL1        0.0777
      8 C         144.2250  139.9256  161.1285 C.ar    1  UNL1        0.0797
      9 C         143.6381  140.6851  159.9758 C.ar    1  UNL1        0.2960
     10 C         143.0973  142.0682  160.1866 C.ar    1  UNL1        0.1059
     11 S         142.5103  142.8278  159.0340 S.2     1  UNL1       -0.0466
     12 N         140.2086  146.4895  155.7868 N.3     1  UNL1       -0.2698
     13 C         139.5976  146.6073  157.1517 C.3     1  UNL1        0.0939
     14 C         140.1845  145.8478  158.3043 C.3     1  UNL1        0.1100
     15 N         141.3825  144.9704  158.0921 N.pl3   1  UNL1       -0.2852
     16 C         141.9935  144.8525  156.7273 C.3     1  UNL1        0.1100
     17 C         141.4065  145.6120  155.5746 C.3     1  UNL1        0.0939
     18 C         139.6216  147.2490  154.6342 C.3     1  UNL1        0.0722
     19 N         139.8493  153.2442  154.5648 N.2     1  UNL1       -0.0918
     20 C         139.7924  151.7454  154.5821 C.2     1  UNL1        0.0748
     21 C         138.8309  151.0419  155.4934 C.3     1  UNL1        0.0447
     22 C         138.7739  149.5431  155.5108 C.3     1  UNL1        0.0074
     23 C         139.6785  148.7477  154.6168 C.3     1  UNL1        0.0167
     24 C         140.6401  149.4513  153.7055 C.3     1  UNL1        0.0074
     25 C         140.6970  150.9501  153.6881 C.3     1  UNL1        0.0447
     26 O         138.9447  154.0395  155.4587 O.2     1  UNL1       -0.3779
     27 C         137.4976  154.7432  153.4190 C.3     1  UNL1        0.0543
     28 C         137.6962  154.6583  154.9033 C.3     1  UNL1        0.2386
     29 C         144.8581  139.7897  163.6446 C.3     1  UNL1        0.4188
     30 F         145.4451  139.0301  164.7972 F       1  UNL1       -0.1659
     31 F         144.0036  138.6061  163.2998 F       1  UNL1       -0.1659
     32 F         145.7127  140.9732  163.9893 F       1  UNL1       -0.1659
     33 N         143.5920  140.0615  158.6124 N.pl3   1  UNL1        0.0814
     34 O         144.7366  140.2515  157.6616 O.2     1  UNL1        0.0415
     35 O         142.4013  139.2478  158.1997 O.co2   1  UNL1       -0.5760
@<TRIPOS>UNITY_ATOM_ATTR
33 1
charge 1
35 1
charge -1
@<TRIPOS>BOND
     1    27    28    1
     2    28    26    1
     3    26    19    1
     4    19    20    2
     5    20    21    1
     6    21    22    1
     7    22    23    1
     8    23    18    1
     9    18    12    1
    10    12    13    1
    11    13    14    1
    12    14    15    1
    13    15     1    1
    14     1     2   ar
    15     2     3   ar
    16     3     4    2
    17     3     5   ar
    18     5     6   ar
    19     6     7   ar
    20     7    29    1
    21    29    30    1
    22    29    31    1
    23    29    32    1
    24     7     8   ar
    25     8     9   ar
    26     9    33    1
    27    33    34    2
    28    33    35    1
    29     9    10   ar
    30    10    11   ar
    31    15    16    1
    32    16    17    1
    33    23    24    1
    34    24    25    1
    35    25    20    1
    36    17    12    1
    37    11     1   ar
    38    10     5   ar
@<TRIPOS>MOLECULE
*****
 35 38 0 0 0
SMALL
GASTEIGER

@<TRIPOS>ATOM
      1 C         142.6149  140.4821  162.2447 C.ar    1  UNL1        0.1665
      2 N         143.8971  141.1708  162.6074 N.ar    1  UNL1       -0.1866
      3 C         144.0802  141.7385  163.9836 C.ar    1  UNL1        0.2814
      4 O         145.3625  142.4273  164.3463 O.2     1  UNL1       -0.2651
      5 C         142.9812  141.6175  164.9972 C.ar    1  UNL1        0.0699
      6 C         143.1644  142.1853  166.3735 C.ar    1  UNL1        0.0096
      7 C         142.0653  142.0643  167.3872 C.ar    1  UNL1        0.0777
      8 C         140.7830  141.3755  167.0244 C.ar    1  UNL1        0.0797
      9 C         140.5999  140.8078  165.6482 C.ar    1  UNL1        0.2960
     10 C         141.6990  140.9288  164.6346 C.ar    1  UNL1        0.1059
     11 S         141.5158  140.3611  163.2583 S.2     1  UNL1       -0.0466
     12 N         142.0653  138.7788  158.1159 N.3     1  UNL1       -0.2698
     13 C         141.0220  138.5460  159.1683 C.3     1  UNL1        0.0939
     14 C         141.2052  139.1138  160.5445 C.3     1  UNL1        0.1100
     15 N         142.4317  139.9143  160.8684 N.pl3   1  UNL1       -0.2852
     16 C         143.4750  140.1470  159.8161 C.3     1  UNL1        0.1100
     17 C         143.2918  139.5793  158.4398 C.3     1  UNL1        0.0939
     18 C         141.8821  138.2110  156.7397 C.3     1  UNL1        0.0722
     19 N         142.4221  132.3043  155.8350 N.2     1  UNL1       -0.0918
     20 C         142.2871  133.7810  156.0611 C.2     1  UNL1        0.0748
     21 C         143.1431  134.4640  157.0861 C.3     1  UNL1        0.0447
     22 C         143.0081  135.9408  157.3123 C.3     1  UNL1        0.0074
     23 C         142.0171  136.7344  156.5135 C.3     1  UNL1        0.0167
     24 C         141.1611  136.0512  155.4885 C.3     1  UNL1        0.0074
     25 C         141.2961  134.5745  155.2623 C.3     1  UNL1        0.0447
     26 O         143.4132  131.5107  156.6338 O.2     1  UNL1       -0.3779
     27 C         144.8293  130.0090  155.0559 C.3     1  UNL1        0.0543
     28 C         144.7378  131.1430  156.0335 C.3     1  UNL1        0.2386
     29 C         142.2484  142.6320  168.7634 C.3     1  UNL1        0.4188
     30 F         142.4315  143.1998  170.1397 F       1  UNL1       -0.1659
     31 F         140.7611  142.7628  168.9073 F       1  UNL1       -0.1659
     32 F         143.7357  142.5012  168.6194 F       1  UNL1       -0.1659
     33 N         139.3177  140.1190  165.2856 N.pl3   1  UNL1        0.0814
     34 O         139.2143  138.6258  165.3846 O.2     1  UNL1        0.0415
     35 O         138.1388  140.9234  164.8239 O.co2   1  UNL1       -0.5760
@<TRIPOS>UNITY_ATOM_ATTR
33 1
charge 1
35 1
charge -1
@<TRIPOS>BOND
     1    27    28    1
     2    28    26    1
     3    26    19    1
     4    19    20    2
     5    20    21    1
     6    21    22    1
     7    22    23    1
     8    23    18    1
     9    18    12    1
    10    12    13    1
    11    13    14    1
    12    14    15    1
    13    15     1    1
    14     1     2   ar
    15     2     3   ar
    16     3     4    2
    17     3     5   ar
    18     5     6   ar
    19     6     7   ar
    20     7    29    1
    21    29    30    1
    22    29    31    1
    23    29    32    1
    24     7     8   ar
    25     8     9   ar
    26     9    33    1
    27    33    34    2
    28    33    35    1
    29     9    10   ar
    30    10    11   ar
    31    15    16    1
    32    16    17    1
    33    23    24    1
    34    24    25    1
    35    25    20    1
    36    17    12    1
    37    11     1   ar
    38    10     5   ar
@<TRIPOS>MOLECULE
*****
 35 38 0 0 0
SMALL
GASTEIGER

@<TRIPOS>ATOM
      1 C         141.4491  144.1978  160.3136 C.ar    1  UNL1        0.1665
      2 N         142.8661  144.0955  160.7948 N.ar    1  UNL1       -0.1866
      3 C         143.1502  143.6773  162.2069 C.ar    1  UNL1        0.2814
      4 O         144.5673  143.5750  162.6882 O.2     1  UNL1       -0.2651
      5 C         142.0173  143.3614  163.1379 C.ar    1  UNL1        0.0699
      6 C         142.3015  142.9431  164.5502 C.ar    1  UNL1        0.0096
      7 C         141.1687  142.6272  165.4812 C.ar    1  UNL1        0.0777
      8 C         139.7516  142.7295  165.0000 C.ar    1  UNL1        0.0797
      9 C         139.4675  143.1477  163.5878 C.ar    1  UNL1        0.2960
     10 C         140.6003  143.4636  162.6568 C.ar    1  UNL1        0.1059
     11 S         140.3162  143.8818  161.2446 S.2     1  UNL1       -0.0466
     12 N         140.5966  145.4525  156.0769 N.3     1  UNL1       -0.2698
     13 C         141.8322  145.9445  156.7707 C.3     1  UNL1        0.0939
     14 C         142.1163  145.5263  158.1828 C.3     1  UNL1        0.1100
     15 N         141.1649  144.6160  158.9013 N.pl3   1  UNL1       -0.2852
     16 C         139.9294  144.1239  158.2076 C.3     1  UNL1        0.1100
     17 C         139.6452  144.5422  156.7954 C.3     1  UNL1        0.0939
     18 C         140.3124  145.8707  154.6647 C.3     1  UNL1        0.0722
     19 N         139.2747  151.6425  153.3965 N.2     1  UNL1       -0.0918
     20 C         139.5341  150.1996  153.7135 C.2     1  UNL1        0.0748
     21 C         138.9644  149.5916  154.9608 C.3     1  UNL1        0.0447
     22 C         139.2238  148.1486  155.2779 C.3     1  UNL1        0.0074
     23 C         140.0530  147.3136  154.3477 C.3     1  UNL1        0.0167
     24 C         140.6228  147.9217  153.1004 C.3     1  UNL1        0.0074
     25 C         140.3633  149.3646  152.7833 C.3     1  UNL1        0.0447
     26 O         138.4455  152.4775  154.3267 O.2     1  UNL1       -0.3779
     27 C         137.9826  154.7520  155.4940 C.3     1  UNL1        0.0543
     28 C         138.7376  153.9405  154.4833 C.3     1  UNL1        0.2386
     29 C         141.4528  142.2090  166.8934 C.3     1  UNL1        0.4188
     30 F         141.7370  141.7907  168.3057 F       1  UNL1       -0.1659
     31 F         142.8785  141.9263  166.5228 F       1  UNL1       -0.1659
     32 F         140.0271  142.4917  167.2640 F       1  UNL1       -0.1659
     33 N         138.0505  143.2500  163.1066 N.pl3   1  UNL1        0.0814
     34 O         137.4409  144.5963  162.8498 O.2     1  UNL1        0.0415
     35 O         137.2429  142.0059  162.8822 O.co2   1  UNL1       -0.5760
@<TRIPOS>UNITY_ATOM_ATTR
33 1
charge 1
35 1
charge -1
@<TRIPOS>BOND
     1    27    28    1
     2    28    26    1
     3    26    19    1
     4    19    20    2
     5    20    21    1
     6    21    22    1
     7    22    23    1
     8    23    18    1
     9    18    12    1
    10    12    13    1
    11    13    14    1
    12    14    15    1
    13    15     1    1
    14     1     2   ar
    15     2     3   ar
    16     3     4    2
    17     3     5   ar
    18     5     6   ar
    19     6     7   ar
    20     7    29    1
    21    29    30    1
    22    29    31    1
    23    29    32    1
    24     7     8   ar
    25     8     9   ar
    26     9    33    1
    27    33    34    2
    28    33    35    1
    29     9    10   ar
    30    10    11   ar
    31    15    16    1
    32    16    17    1
    33    23    24    1
    34    24    25    1
    35    25    20    1
    36    17    12    1
    37    11     1   ar
    38    10     5   ar
@<TRIPOS>MOLECULE
*****
 35 38 0 0 0
SMALL
GASTEIGER

@<TRIPOS>ATOM
      1 C         140.3297  140.6556  159.5167 C.ar    1  UNL1        0.1665
      2 N         140.1593  142.0826  159.0872 N.ar    1  UNL1       -0.1866
      3 C         139.7832  143.1290  160.0939 C.ar    1  UNL1        0.2814
      4 O         139.6128  144.5562  159.6644 O.2     1  UNL1       -0.2651
      5 C         139.5776  142.7484  161.5302 C.ar    1  UNL1        0.0699
      6 C         139.2015  143.7950  162.5369 C.ar    1  UNL1        0.0096
      7 C         138.9959  143.4144  163.9732 C.ar    1  UNL1        0.0777
      8 C         139.1663  141.9872  164.4027 C.ar    1  UNL1        0.0797
      9 C         139.5424  140.9408  163.3960 C.ar    1  UNL1        0.2960
     10 C         139.7480  141.3214  161.9597 C.ar    1  UNL1        0.1059
     11 S         140.1240  140.2750  160.9530 S.2     1  UNL1       -0.0466
     12 N         141.4578  137.5161  156.4965 N.3     1  UNL1       -0.2698
     13 C         140.0561  137.5769  157.0273 C.3     1  UNL1        0.0939
     14 C         139.6801  138.6234  158.0340 C.3     1  UNL1        0.1100
     15 N         140.7057  139.6091  158.5100 N.pl3   1  UNL1       -0.2852
     16 C         142.1073  139.5483  157.9792 C.3     1  UNL1        0.1100
     17 C         142.4834  138.5018  156.9724 C.3     1  UNL1        0.0939
     18 C         141.8338  136.4697  155.4898 C.3     1  UNL1        0.0722
     19 N         143.4375  130.9853  157.3200 N.2     1  UNL1       -0.0918
     20 C         143.0366  132.3564  156.8625 C.2     1  UNL1        0.0748
     21 C         142.0238  132.5153  155.7675 C.3     1  UNL1        0.0447
     22 C         141.6228  133.8864  155.3099 C.3     1  UNL1        0.0074
     23 C         142.2347  135.0986  155.9473 C.3     1  UNL1        0.0167
     24 C         143.2475  134.9396  157.0424 C.3     1  UNL1        0.0074
     25 C         143.6484  133.5686  157.4999 C.3     1  UNL1        0.0447
     26 O         142.8256  129.7732  156.6826 O.2     1  UNL1       -0.3779
     27 C         144.5247  127.9575  155.9300 C.3     1  UNL1        0.0543
     28 C         143.5562  129.0511  155.5895 C.3     1  UNL1        0.2386
     29 C         138.6199  144.4608  164.9799 C.3     1  UNL1        0.4188
     30 F         138.2439  145.5073  165.9867 F       1  UNL1       -0.1659
     31 F         140.0045  145.0324  164.9029 F       1  UNL1       -0.1659
     32 F         137.2353  143.8891  165.0570 F       1  UNL1       -0.1659
     33 N         139.7128  139.5138  163.8255 N.pl3   1  UNL1        0.0814
     34 O         138.5289  138.5930  163.8552 O.2     1  UNL1        0.0415
     35 O         141.0669  139.0075  164.2253 O.co2   1  UNL1       -0.5760
@<TRIPOS>UNITY_ATOM_ATTR
33 1
charge 1
35 1
charge -1
@<TRIPOS>BOND
     1    27    28    1
     2    28    26    1
     3    26    19    1
     4    19    20    2
     5    20    21    1
     6    21    22    1
     7    22    23    1
     8    23    18    1
     9    18    12    1
    10    12    13    1
    11    13    14    1
    12    14    15    1
    13    15     1    1
    14     1     2   ar
    15     2     3   ar
    16     3     4    2
    17     3     5   ar
    18     5     6   ar
    19     6     7   ar
    20     7    29    1
    21    29    30    1
    22    29    31    1
    23    29    32    1
    24     7     8   ar
    25     8     9   ar
    26     9    33    1
    27    33    34    2
    28    33    35    1
    29     9    10   ar
    30    10    11   ar
    31    15    16    1
    32    16    17    1
    33    23    24    1
    34    24    25    1
    35    25    20    1
    36    17    12    1
    37    11     1   ar
    38    10     5   ar
@<TRIPOS>MOLECULE
*****
 35 38 0 0 0
SMALL
GASTEIGER

@<TRIPOS>ATOM
      1 C         142.6307  143.3828  163.2513 C.ar    1  UNL1        0.1665
      2 N         143.7931  143.9555  164.0069 N.ar    1  UNL1       -0.1866
      3 C         144.0558  143.5233  165.4190 C.ar    1  UNL1        0.2814
      4 O         145.2182  144.0960  166.1746 O.2     1  UNL1       -0.2651
      5 C         143.1562  142.5186  166.0755 C.ar    1  UNL1        0.0699
      6 C         143.4189  142.0864  167.4878 C.ar    1  UNL1        0.0096
      7 C         142.5193  141.0816  168.1443 C.ar    1  UNL1        0.0777
      8 C         141.3569  140.5090  167.3887 C.ar    1  UNL1        0.0797
      9 C         141.0941  140.9412  165.9765 C.ar    1  UNL1        0.2960
     10 C         141.9938  141.9459  165.3200 C.ar    1  UNL1        0.1059
     11 S         141.7311  142.3781  163.9078 S.2     1  UNL1       -0.0466
     12 N         141.8423  144.6793  159.0147 N.3     1  UNL1       -0.2698
     13 C         141.0721  145.2972  160.1439 C.3     1  UNL1        0.0939
     14 C         141.3349  144.8651  161.5560 C.3     1  UNL1        0.1100
     15 N         142.3679  143.8150  161.8391 N.pl3   1  UNL1       -0.2852
     16 C         143.1382  143.1970  160.7100 C.3     1  UNL1        0.1100
     17 C         142.8754  143.6292  159.2978 C.3     1  UNL1        0.0939
     18 C         141.5795  145.1114  157.6026 C.3     1  UNL1        0.0722
     19 N         136.3865  143.6984  154.9501 N.2     1  UNL1       -0.0918
     20 C         137.6848  144.0517  155.6132 C.2     1  UNL1        0.0748
     21 C         138.3288  143.0859  156.5632 C.3     1  UNL1        0.0447
     22 C         139.6271  143.4391  157.2263 C.3     1  UNL1        0.0074
     23 C         140.2813  144.7582  156.9395 C.3     1  UNL1        0.0167
     24 C         139.6371  145.7239  155.9895 C.3     1  UNL1        0.0074
     25 C         138.3389  145.3707  155.3264 C.3     1  UNL1        0.0447
     26 O         135.7324  142.3794  155.2370 O.2     1  UNL1       -0.3779
     27 C         134.9825  140.0349  154.4055 C.3     1  UNL1        0.0543
     28 C         135.4063  141.4433  154.1111 C.3     1  UNL1        0.2386
     29 C         142.7820  140.6495  169.5565 C.3     1  UNL1        0.4188
     30 F         143.0448  140.2174  170.9687 F       1  UNL1       -0.1659
     31 F         143.8393  141.7059  169.6831 F       1  UNL1       -0.1659
     32 F         141.7248  139.5931  169.4299 F       1  UNL1       -0.1659
     33 N         139.9318  140.3685  165.2210 N.pl3   1  UNL1        0.0814
     34 O         140.1132  139.1340  164.3885 O.2     1  UNL1        0.0415
     35 O         138.5879  141.0304  165.2978 O.co2   1  UNL1       -0.5760
@<TRIPOS>UNITY_ATOM_ATTR
33 1
charge 1
35 1
charge -1
@<TRIPOS>BOND
     1    27    28    1
     2    28    26    1
     3    26    19    1
     4    19    20    2
     5    20    21    1
     6    21    22    1
     7    22    23    1
     8    23    18    1
     9    18    12    1
    10    12    13    1
    11    13    14    1
    12    14    15    1
    13    15     1    1
    14     1     2   ar
    15     2     3   ar
    16     3     4    2
    17     3     5   ar
    18     5     6   ar
    19     6     7   ar
    20     7    29    1
    21    29    30    1
    22    29    31    1
    23    29    32    1
    24     7     8   ar
    25     8     9   ar
    26     9    33    1
    27    33    34    2
    28    33    35    1
    29     9    10   ar
    30    10    11   ar
    31    15    16    1
    32    16    17    1
    33    23    24    1
    34    24    25    1
    35    25    20    1
    36    17    12    1
    37    11     1   ar
    38    10     5   ar
