@<TRIPOS>MOLECULE
*****
 32 35 0 0 0
SMALL
GASTEIGER

@<TRIPOS>ATOM
      1 C         139.2913  139.3962  167.4776 C.2     1  UNL1        0.2490
      2 O         137.9184  138.9125  167.8399 O.2     1  UNL1       -0.2699
      3 N         139.8299  139.1599  166.0978 N.am    1  UNL1       -0.2760
      4 C         141.2027  139.6436  165.7355 C.3     1  UNL1        0.0951
      5 C         141.7413  139.4073  164.3556 C.3     1  UNL1        0.0375
      6 C         140.9070  138.6873  163.3380 C.3     1  UNL1        0.0609
      7 C         139.5341  138.2036  163.7003 C.3     1  UNL1        0.0375
      8 C         138.9955  138.4399  165.0801 C.3     1  UNL1        0.0951
      9 C         140.4985  142.1523  170.0655 C.ar    1  UNL1        0.0141
     10 C         141.7940  141.5563  170.5305 C.ar    1  UNL1        0.0011
     11 C         142.2553  140.2403  169.9780 C.ar    1  UNL1        0.0002
     12 C         141.4211  139.5202  168.9604 C.ar    1  UNL1        0.0045
     13 C         140.1256  140.1162  168.4953 C.ar    1  UNL1        0.0536
     14 C         139.6643  141.4322  169.0479 C.ar    1  UNL1        0.0056
     15 O         140.8100  144.7189  170.3206 O.co2   1  UNL1       -0.5446
     16 C         140.0372  143.4683  170.6180 C.2     1  UNL1        0.0729
     17 O         138.8030  143.5336  171.4680 O.co2   1  UNL1       -0.5446
     18 N         141.4456  138.4510  161.9581 N.3     1  UNL1       -0.2736
     19 C         142.8542  137.9690  161.7752 C.3     1  UNL1        0.0758
     20 C         143.3928  137.7327  160.3952 C.3     1  UNL1        0.0609
     21 C         142.5227  137.9784  159.1983 C.3     1  UNL1        0.1687
     22 C         141.1141  138.4603  159.3813 C.3     1  UNL1        0.0609
     23 C         140.5755  138.6966  160.7611 C.3     1  UNL1        0.0758
     24 O         143.0613  137.7421  157.8185 O.3     1  UNL1       -0.4790
     25 C         142.6074  136.5493  157.0303 C.ar    1  UNL1        0.1393
     26 C         141.5327  136.6994  155.9947 C.ar    1  UNL1        0.0378
     27 C         141.0789  135.5066  155.2065 C.ar    1  UNL1        0.0154
     28 C         141.6997  134.1637  155.4539 C.ar    1  UNL1        0.0684
     29 CL        141.2458  132.9710  154.6657 Cl      1  UNL1       -0.0814
     30 C         142.7745  134.0136  156.4895 C.ar    1  UNL1        0.0712
     31 CL        143.3953  132.6707  156.7369 Cl      1  UNL1       -0.0813
     32 C         143.2283  135.2064  157.2777 C.ar    1  UNL1        0.0491
@<TRIPOS>UNITY_ATOM_ATTR
15 1
charge -1
@<TRIPOS>BOND
     1    15    16   ar
     2    16    17   ar
     3    16     9    1
     4     9    10   ar
     5    10    11   ar
     6    11    12   ar
     7    12    13   ar
     8    13     1    1
     9     1     2    2
    10     1     3   am
    11     3     4    1
    12     4     5    1
    13     5     6    1
    14     6    18    1
    15    18    19    1
    16    19    20    1
    17    20    21    1
    18    21    24    1
    19    24    25    1
    20    25    26   ar
    21    26    27   ar
    22    27    28   ar
    23    28    29    1
    24    28    30   ar
    25    30    31    1
    26    30    32   ar
    27    21    22    1
    28    22    23    1
    29     6     7    1
    30     7     8    1
    31    13    14   ar
    32    14     9   ar
    33     8     3    1
    34    23    18    1
    35    32    25   ar
@<TRIPOS>MOLECULE
*****
 32 35 0 0 0
SMALL
GASTEIGER

@<TRIPOS>ATOM
      1 C         138.7028  139.3328  166.0231 C.2     1  UNL1        0.2490
      2 O         137.5375  138.5178  166.5004 O.2     1  UNL1       -0.2699
      3 N         139.2488  139.1236  164.6418 N.am    1  UNL1       -0.2760
      4 C         140.4141  139.9386  164.1645 C.3     1  UNL1        0.0951
      5 C         140.9601  139.7293  162.7831 C.3     1  UNL1        0.0375
      6 C         140.3408  138.7050  161.8791 C.3     1  UNL1        0.0609
      7 C         139.1755  137.8900  162.3564 C.3     1  UNL1        0.0375
      8 C         138.6295  138.0992  163.7377 C.3     1  UNL1        0.0951
      9 C         140.0574  141.1112  169.3022 C.ar    1  UNL1        0.0141
     10 C         140.5606  142.4056  168.7354 C.ar    1  UNL1        0.0011
     11 C         140.4446  142.6757  167.2645 C.ar    1  UNL1        0.0002
     12 C         139.8253  141.6515  166.3604 C.ar    1  UNL1        0.0045
     13 C         139.3221  140.3571  166.9272 C.ar    1  UNL1        0.0536
     14 C         139.4381  140.0870  168.3981 C.ar    1  UNL1        0.0056
     15 O         140.7640  141.8781  171.6818 O.co2   1  UNL1       -0.5446
     16 C         140.1734  140.8411  170.7731 C.2     1  UNL1        0.0729
     17 O         139.6988  139.5340  171.3353 O.co2   1  UNL1       -0.5446
     18 N         140.8868  138.4958  160.4978 N.3     1  UNL1       -0.2736
     19 C         142.3599  138.2979  160.2956 C.3     1  UNL1        0.0758
     20 C         142.9059  138.0886  158.9142 C.3     1  UNL1        0.0609
     21 C         141.9788  138.0772  157.7351 C.3     1  UNL1        0.1687
     22 C         140.5057  138.2751  157.9373 C.3     1  UNL1        0.0609
     23 C         139.9597  138.4844  159.3186 C.3     1  UNL1        0.0758
     24 O         142.5248  137.8680  156.3538 O.3     1  UNL1       -0.4790
     25 C         142.4791  136.5057  155.7276 C.ar    1  UNL1        0.1393
     26 C         142.2631  136.3664  154.2499 C.ar    1  UNL1        0.0378
     27 C         142.2173  135.0041  153.6237 C.ar    1  UNL1        0.0154
     28 C         142.3876  133.7811  154.4753 C.ar    1  UNL1        0.0684
     29 CL        142.3418  132.4188  153.8492 Cl      1  UNL1       -0.0814
     30 C         142.6036  133.9204  155.9532 C.ar    1  UNL1        0.0712
     31 CL        142.7738  132.6974  156.8048 Cl      1  UNL1       -0.0813
     32 C         142.6493  135.2827  156.5793 C.ar    1  UNL1        0.0491
@<TRIPOS>UNITY_ATOM_ATTR
15 1
charge -1
@<TRIPOS>BOND
     1    15    16   ar
     2    16    17   ar
     3    16     9    1
     4     9    10   ar
     5    10    11   ar
     6    11    12   ar
     7    12    13   ar
     8    13     1    1
     9     1     2    2
    10     1     3   am
    11     3     4    1
    12     4     5    1
    13     5     6    1
    14     6    18    1
    15    18    19    1
    16    19    20    1
    17    20    21    1
    18    21    24    1
    19    24    25    1
    20    25    26   ar
    21    26    27   ar
    22    27    28   ar
    23    28    29    1
    24    28    30   ar
    25    30    31    1
    26    30    32   ar
    27    21    22    1
    28    22    23    1
    29     6     7    1
    30     7     8    1
    31    13    14   ar
    32    14     9   ar
    33     8     3    1
    34    23    18    1
    35    32    25   ar
@<TRIPOS>MOLECULE
*****
 32 35 0 0 0
SMALL
GASTEIGER

@<TRIPOS>ATOM
      1 C         142.8410  139.1977  166.9118 C.2     1  UNL1        0.2490
      2 O         143.7432  138.1480  167.4897 O.2     1  UNL1       -0.2699
      3 N         143.0163  139.6363  165.4881 N.am    1  UNL1       -0.2760
      4 C         142.1141  140.6861  164.9102 C.3     1  UNL1        0.0951
      5 C         142.2894  141.1246  163.4864 C.3     1  UNL1        0.0375
      6 C         143.3669  140.5134  162.6407 C.3     1  UNL1        0.0609
      7 C         144.2692  139.4637  163.2186 C.3     1  UNL1        0.0375
      8 C         144.0939  139.0251  164.6423 C.3     1  UNL1        0.0951
      9 C         141.0495  141.3303  169.7389 C.ar    1  UNL1        0.0141
     10 C         139.6084  141.0313  169.4492 C.ar    1  UNL1        0.0011
     11 C         139.2449  140.1211  168.3137 C.ar    1  UNL1        0.0002
     12 C         140.3224  139.5099  167.4679 C.ar    1  UNL1        0.0045
     13 C         141.7634  139.8089  167.7576 C.ar    1  UNL1        0.0536
     14 C         142.1269  140.7191  168.8931 C.ar    1  UNL1        0.0056
     15 O         142.5241  143.2350  170.7123 O.co2   1  UNL1       -0.5446
     16 C         141.4130  142.2405  170.8744 C.2     1  UNL1        0.0729
     17 O         140.6654  142.1562  172.1721 O.co2   1  UNL1       -0.5446
     18 N         143.5423  140.9520  161.2170 N.3     1  UNL1       -0.2736
     19 C         143.5511  142.4132  160.8780 C.3     1  UNL1        0.0758
     20 C         143.7264  142.8517  159.4543 C.3     1  UNL1        0.0609
     21 C         143.8929  141.8291  158.3696 C.3     1  UNL1        0.1687
     22 C         143.8841  140.3680  158.7086 C.3     1  UNL1        0.0609
     23 C         143.7088  139.9294  160.1323 C.3     1  UNL1        0.0758
     24 O         144.0682  142.2677  156.9459 O.3     1  UNL1       -0.4790
     25 C         145.4091  142.1489  156.2842 C.ar    1  UNL1        0.1393
     26 C         146.6534  142.5071  157.0413 C.ar    1  UNL1        0.0378
     27 C         147.9943  142.3882  156.3796 C.ar    1  UNL1        0.0154
     28 C         148.0909  141.9112  154.9608 C.ar    1  UNL1        0.0684
     29 CL        149.4318  141.7923  154.2991 Cl      1  UNL1       -0.0814
     30 C         146.8465  141.5529  154.2036 C.ar    1  UNL1        0.0712
     31 CL        146.9431  141.0759  152.7848 Cl      1  UNL1       -0.0813
     32 C         145.5056  141.6718  154.8654 C.ar    1  UNL1        0.0491
@<TRIPOS>UNITY_ATOM_ATTR
15 1
charge -1
@<TRIPOS>BOND
     1    15    16   ar
     2    16    17   ar
     3    16     9    1
     4     9    10   ar
     5    10    11   ar
     6    11    12   ar
     7    12    13   ar
     8    13     1    1
     9     1     2    2
    10     1     3   am
    11     3     4    1
    12     4     5    1
    13     5     6    1
    14     6    18    1
    15    18    19    1
    16    19    20    1
    17    20    21    1
    18    21    24    1
    19    24    25    1
    20    25    26   ar
    21    26    27   ar
    22    27    28   ar
    23    28    29    1
    24    28    30   ar
    25    30    31    1
    26    30    32   ar
    27    21    22    1
    28    22    23    1
    29     6     7    1
    30     7     8    1
    31    13    14   ar
    32    14     9   ar
    33     8     3    1
    34    23    18    1
    35    32    25   ar
@<TRIPOS>MOLECULE
*****
 32 35 0 0 0
SMALL
GASTEIGER

@<TRIPOS>ATOM
      1 C         138.0004  140.9182  163.3857 C.2     1  UNL1        0.2490
      2 O         136.8262  141.8300  163.1855 O.2     1  UNL1       -0.2699
      3 N         138.6673  140.2834  162.2016 N.am    1  UNL1       -0.2760
      4 C         139.8415  139.3716  162.4018 C.3     1  UNL1        0.0951
      5 C         140.5085  138.7367  161.2176 C.3     1  UNL1        0.0375
      6 C         140.0013  139.0136  159.8334 C.3     1  UNL1        0.0609
      7 C         138.8271  139.9253  159.6333 C.3     1  UNL1        0.0375
      8 C         138.1601  140.5602  160.8173 C.3     1  UNL1        0.0951
      9 C         139.9719  141.3175  166.8067 C.ar    1  UNL1        0.0141
     10 C         139.5220  140.0878  167.5384 C.ar    1  UNL1        0.0011
     11 C         138.5648  139.1349  166.8858 C.ar    1  UNL1        0.0002
     12 C         138.0576  139.4117  165.5016 C.ar    1  UNL1        0.0045
     13 C         138.5076  140.6414  164.7700 C.ar    1  UNL1        0.0536
     14 C         139.4647  141.5943  165.4225 C.ar    1  UNL1        0.0056
     15 O         140.4574  143.1677  168.5649 O.co2   1  UNL1       -0.5446
     16 C         140.9291  142.2704  167.4593 C.2     1  UNL1        0.0729
     17 O         142.3579  142.3261  167.0063 O.co2   1  UNL1       -0.5446
     18 N         140.6682  138.3787  158.6493 N.3     1  UNL1       -0.2736
     19 C         142.1603  138.2270  158.6210 C.3     1  UNL1        0.0758
     20 C         142.8272  137.5921  157.4369 C.3     1  UNL1        0.0609
     21 C         142.0022  137.1089  156.2811 C.3     1  UNL1        0.1687
     22 C         140.5101  137.2606  156.3095 C.3     1  UNL1        0.0609
     23 C         139.8432  137.8955  157.4935 C.3     1  UNL1        0.0758
     24 O         142.6691  136.4741  155.0971 O.3     1  UNL1       -0.4790
     25 C         142.9669  135.0039  155.1030 C.ar    1  UNL1        0.1393
     26 C         142.4368  134.1269  154.0076 C.ar    1  UNL1        0.0378
     27 C         142.7346  132.6568  154.0135 C.ar    1  UNL1        0.0154
     28 C         143.5625  132.0637  155.1147 C.ar    1  UNL1        0.0684
     29 CL        143.8603  130.5935  155.1206 Cl      1  UNL1       -0.0814
     30 C         144.0927  132.9407  156.2101 C.ar    1  UNL1        0.0712
     31 CL        144.9206  132.3476  157.3113 Cl      1  UNL1       -0.0813
     32 C         143.7949  134.4108  156.2042 C.ar    1  UNL1        0.0491
@<TRIPOS>UNITY_ATOM_ATTR
15 1
charge -1
@<TRIPOS>BOND
     1    15    16   ar
     2    16    17   ar
     3    16     9    1
     4     9    10   ar
     5    10    11   ar
     6    11    12   ar
     7    12    13   ar
     8    13     1    1
     9     1     2    2
    10     1     3   am
    11     3     4    1
    12     4     5    1
    13     5     6    1
    14     6    18    1
    15    18    19    1
    16    19    20    1
    17    20    21    1
    18    21    24    1
    19    24    25    1
    20    25    26   ar
    21    26    27   ar
    22    27    28   ar
    23    28    29    1
    24    28    30   ar
    25    30    31    1
    26    30    32   ar
    27    21    22    1
    28    22    23    1
    29     6     7    1
    30     7     8    1
    31    13    14   ar
    32    14     9   ar
    33     8     3    1
    34    23    18    1
    35    32    25   ar
@<TRIPOS>MOLECULE
*****
 32 35 0 0 0
SMALL
GASTEIGER

@<TRIPOS>ATOM
      1 C         143.1135  143.5856  162.7297 C.2     1  UNL1        0.2490
      2 O         144.0593  144.7484  162.6719 O.2     1  UNL1       -0.2699
      3 N         143.0884  142.5831  161.6142 N.am    1  UNL1       -0.2760
      4 C         142.1426  141.4202  161.6720 C.3     1  UNL1        0.0951
      5 C         142.1176  140.4177  160.5565 C.3     1  UNL1        0.0375
      6 C         143.0383  140.5781  159.3832 C.3     1  UNL1        0.0609
      7 C         143.9840  141.7409  159.3254 C.3     1  UNL1        0.0375
      8 C         144.0091  142.7434  160.4409 C.3     1  UNL1        0.0951
      9 C         139.9331  143.9413  165.0768 C.ar    1  UNL1        0.0141
     10 C         140.3513  143.1048  166.2495 C.ar    1  UNL1        0.0011
     11 C         141.6902  142.4285  166.2490 C.ar    1  UNL1        0.0002
     12 C         142.6109  142.5887  165.0757 C.ar    1  UNL1        0.0045
     13 C         142.1927  143.4253  163.9031 C.ar    1  UNL1        0.0536
     14 C         140.8539  144.1016  163.9036 C.ar    1  UNL1        0.0056
     15 O         137.6530  144.4187  163.9266 O.co2   1  UNL1       -0.5446
     16 C         138.5943  144.6176  165.0774 C.2     1  UNL1        0.0729
     17 O         138.1966  145.4929  166.2288 O.co2   1  UNL1       -0.5446
     18 N         143.0132  139.5756  158.2677 N.3     1  UNL1       -0.2736
     19 C         143.5464  139.9449  156.9152 C.3     1  UNL1        0.0758
     20 C         143.5213  138.9423  155.7997 C.3     1  UNL1        0.0609
     21 C         142.9630  137.5705  156.0368 C.3     1  UNL1        0.1687
     22 C         142.4297  137.2011  157.3892 C.3     1  UNL1        0.0609
     23 C         142.4548  138.2036  158.5047 C.3     1  UNL1        0.0758
     24 O         142.9379  136.5680  154.9213 O.3     1  UNL1       -0.4790
     25 C         142.7995  135.1065  155.2293 C.ar    1  UNL1        0.1393
     26 C         141.4769  134.4233  155.0459 C.ar    1  UNL1        0.0378
     27 C         141.3385  132.9618  155.3540 C.ar    1  UNL1        0.0154
     28 C         142.5229  132.1835  155.8454 C.ar    1  UNL1        0.0684
     29 CL        142.3845  130.7220  156.1534 Cl      1  UNL1       -0.0814
     30 C         143.8456  132.8667  156.0288 C.ar    1  UNL1        0.0712
     31 CL        145.0300  132.0884  156.5203 Cl      1  UNL1       -0.0813
     32 C         143.9840  134.3282  155.7208 C.ar    1  UNL1        0.0491
@<TRIPOS>UNITY_ATOM_ATTR
15 1
charge -1
@<TRIPOS>BOND
     1    15    16   ar
     2    16    17   ar
     3    16     9    1
     4     9    10   ar
     5    10    11   ar
     6    11    12   ar
     7    12    13   ar
     8    13     1    1
     9     1     2    2
    10     1     3   am
    11     3     4    1
    12     4     5    1
    13     5     6    1
    14     6    18    1
    15    18    19    1
    16    19    20    1
    17    20    21    1
    18    21    24    1
    19    24    25    1
    20    25    26   ar
    21    26    27   ar
    22    27    28   ar
    23    28    29    1
    24    28    30   ar
    25    30    31    1
    26    30    32   ar
    27    21    22    1
    28    22    23    1
    29     6     7    1
    30     7     8    1
    31    13    14   ar
    32    14     9   ar
    33     8     3    1
    34    23    18    1
    35    32    25   ar
@<TRIPOS>MOLECULE
*****
 32 35 0 0 0
SMALL
GASTEIGER

@<TRIPOS>ATOM
      1 C         138.8313  141.5473  163.5396 C.2     1  UNL1        0.2490
      2 O         138.1779  142.8808  163.3279 O.2     1  UNL1       -0.2699
      3 N         139.3327  140.7627  162.3636 N.am    1  UNL1       -0.2760
      4 C         139.9860  139.4291  162.5753 C.3     1  UNL1        0.0951
      5 C         140.4875  138.6445  161.3993 C.3     1  UNL1        0.0375
      6 C         140.3356  139.1935  160.0116 C.3     1  UNL1        0.0609
      7 C         139.6823  140.5270  159.8000 C.3     1  UNL1        0.0375
      8 C         139.1808  141.3116  160.9759 C.3     1  UNL1        0.0951
      9 C         138.3619  139.2324  166.7288 C.ar    1  UNL1        0.0141
     10 C         139.2868  139.9005  167.7026 C.ar    1  UNL1        0.0011
     11 C         140.0599  141.1175  167.2887 C.ar    1  UNL1        0.0002
     12 C         139.9080  141.6664  165.9011 C.ar    1  UNL1        0.0045
     13 C         138.9831  140.9983  164.9273 C.ar    1  UNL1        0.0536
     14 C         138.2101  139.7813  165.3412 C.ar    1  UNL1        0.0056
     15 O         136.7346  138.0527  168.3751 O.co2   1  UNL1       -0.5446
     16 C         137.5889  138.0154  167.1427 C.2     1  UNL1        0.0729
     17 O         137.6700  136.7611  166.3242 O.co2   1  UNL1       -0.5446
     18 N         140.8370  138.4089  158.8357 N.3     1  UNL1       -0.2736
     19 C         139.9032  138.0563  157.7160 C.3     1  UNL1        0.0758
     20 C         140.4047  137.2716  156.5401 C.3     1  UNL1        0.0609
     21 C         141.8400  136.8396  156.4837 C.3     1  UNL1        0.1687
     22 C         142.7738  137.1922  157.6034 C.3     1  UNL1        0.0609
     23 C         142.2724  137.9768  158.7793 C.3     1  UNL1        0.0758
     24 O         142.3414  136.0550  155.3078 O.3     1  UNL1       -0.4790
     25 C         142.4622  134.5626  155.3984 C.ar    1  UNL1        0.1393
     26 C         141.2912  133.6928  155.0489 C.ar    1  UNL1        0.0378
     27 C         141.4120  132.2004  155.1394 C.ar    1  UNL1        0.0154
     28 C         142.7038  131.5778  155.5795 C.ar    1  UNL1        0.0684
     29 CL        142.8246  130.0855  155.6701 Cl      1  UNL1       -0.0814
     30 C         143.8748  132.4477  155.9290 C.ar    1  UNL1        0.0712
     31 CL        145.1666  131.8251  156.3691 Cl      1  UNL1       -0.0813
     32 C         143.7540  133.9401  155.8384 C.ar    1  UNL1        0.0491
@<TRIPOS>UNITY_ATOM_ATTR
15 1
charge -1
@<TRIPOS>BOND
     1    15    16   ar
     2    16    17   ar
     3    16     9    1
     4     9    10   ar
     5    10    11   ar
     6    11    12   ar
     7    12    13   ar
     8    13     1    1
     9     1     2    2
    10     1     3   am
    11     3     4    1
    12     4     5    1
    13     5     6    1
    14     6    18    1
    15    18    19    1
    16    19    20    1
    17    20    21    1
    18    21    24    1
    19    24    25    1
    20    25    26   ar
    21    26    27   ar
    22    27    28   ar
    23    28    29    1
    24    28    30   ar
    25    30    31    1
    26    30    32   ar
    27    21    22    1
    28    22    23    1
    29     6     7    1
    30     7     8    1
    31    13    14   ar
    32    14     9   ar
    33     8     3    1
    34    23    18    1
    35    32    25   ar
@<TRIPOS>MOLECULE
*****
 32 35 0 0 0
SMALL
GASTEIGER

@<TRIPOS>ATOM
      1 C         139.0158  145.9850  155.5359 C.2     1  UNL1        0.2490
      2 O         137.8294  145.1959  155.0672 O.2     1  UNL1       -0.2699
      3 N         139.8368  145.4908  156.6898 N.am    1  UNL1       -0.2760
      4 C         141.0232  146.2799  157.1586 C.3     1  UNL1        0.0951
      5 C         141.8443  145.7857  158.3126 C.3     1  UNL1        0.0375
      6 C         141.4788  144.5024  158.9979 C.3     1  UNL1        0.0609
      7 C         140.2924  143.7133  158.5292 C.3     1  UNL1        0.0375
      8 C         139.4714  144.2075  157.3752 C.3     1  UNL1        0.0951
      9 C         139.3144  149.8636  154.7500 C.ar    1  UNL1        0.0141
     10 C         140.1120  149.8349  153.4800 C.ar    1  UNL1        0.0011
     11 C         140.5442  148.5229  152.8952 C.ar    1  UNL1        0.0002
     12 C         140.1788  147.2396  153.5805 C.ar    1  UNL1        0.0045
     13 C         139.3812  147.2683  154.8505 C.ar    1  UNL1        0.0536
     14 C         138.9490  148.5803  155.4353 C.ar    1  UNL1        0.0056
     15 O         138.3259  152.2467  154.4441 O.co2   1  UNL1       -0.5446
     16 C         138.8822  151.1755  155.3347 C.2     1  UNL1        0.0729
     17 O         139.0063  151.4164  156.8100 O.co2   1  UNL1       -0.5446
     18 N         142.2998  144.0083  160.1519 N.3     1  UNL1       -0.2736
     19 C         143.3678  142.9795  159.9263 C.3     1  UNL1        0.0758
     20 C         144.1889  142.4853  161.0804 C.3     1  UNL1        0.0609
     21 C         143.9418  143.0200  162.4599 C.3     1  UNL1        0.1687
     22 C         142.8738  144.0488  162.6854 C.3     1  UNL1        0.0609
     23 C         142.0528  144.5429  161.5315 C.3     1  UNL1        0.0758
     24 O         144.7628  142.5258  163.6139 O.3     1  UNL1       -0.4790
     25 C         144.0966  141.8365  164.7676 C.ar    1  UNL1        0.1393
     26 C         143.5557  142.6418  165.9116 C.ar    1  UNL1        0.0378
     27 C         142.8895  141.9525  167.0653 C.ar    1  UNL1        0.0154
     28 C         142.7642  140.4578  167.0749 C.ar    1  UNL1        0.0684
     29 CL        142.0979  139.7685  168.2286 Cl      1  UNL1       -0.0814
     30 C         143.3051  139.6524  165.9309 C.ar    1  UNL1        0.0712
     31 CL        143.1797  138.1577  165.9406 Cl      1  UNL1       -0.0813
     32 C         143.9713  140.3417  164.7772 C.ar    1  UNL1        0.0491
@<TRIPOS>UNITY_ATOM_ATTR
15 1
charge -1
@<TRIPOS>BOND
     1    15    16   ar
     2    16    17   ar
     3    16     9    1
     4     9    10   ar
     5    10    11   ar
     6    11    12   ar
     7    12    13   ar
     8    13     1    1
     9     1     2    2
    10     1     3   am
    11     3     4    1
    12     4     5    1
    13     5     6    1
    14     6    18    1
    15    18    19    1
    16    19    20    1
    17    20    21    1
    18    21    24    1
    19    24    25    1
    20    25    26   ar
    21    26    27   ar
    22    27    28   ar
    23    28    29    1
    24    28    30   ar
    25    30    31    1
    26    30    32   ar
    27    21    22    1
    28    22    23    1
    29     6     7    1
    30     7     8    1
    31    13    14   ar
    32    14     9   ar
    33     8     3    1
    34    23    18    1
    35    32    25   ar
@<TRIPOS>MOLECULE
*****
 32 35 0 0 0
SMALL
GASTEIGER

@<TRIPOS>ATOM
      1 C         140.4409  142.5368  164.7429 C.2     1  UNL1        0.2490
      2 O         139.8217  143.9007  164.6624 O.2     1  UNL1       -0.2699
      3 N         140.6499  141.7331  163.4938 N.am    1  UNL1       -0.2760
      4 C         141.2691  140.3692  163.5743 C.3     1  UNL1        0.0951
      5 C         141.4781  139.5655  162.3251 C.3     1  UNL1        0.0375
      6 C         141.0679  140.1257  160.9954 C.3     1  UNL1        0.0609
      7 C         140.4488  141.4896  160.9149 C.3     1  UNL1        0.0375
      8 C         140.2397  142.2933  162.1640 C.3     1  UNL1        0.0951
      9 C         140.2603  140.6895  168.2507 C.ar    1  UNL1        0.0141
     10 C         141.6712  140.8563  168.7319 C.ar    1  UNL1        0.0011
     11 C         142.6720  141.5833  167.8834 C.ar    1  UNL1        0.0002
     12 C         142.2619  142.1434  166.5537 C.ar    1  UNL1        0.0045
     13 C         140.8510  141.9766  166.0726 C.ar    1  UNL1        0.0536
     14 C         139.8502  141.2497  166.9211 C.ar    1  UNL1        0.0056
     15 O         138.1375  139.2054  168.4530 O.co2   1  UNL1       -0.5446
     16 C         139.2595  139.9626  169.0992 C.2     1  UNL1        0.0729
     17 O         139.3807  139.9928  170.5940 O.co2   1  UNL1       -0.5446
     18 N         141.2770  139.3220  159.7463 N.3     1  UNL1       -0.2736
     19 C         140.1072  138.6735  159.0672 C.3     1  UNL1        0.0758
     20 C         140.3163  137.8698  157.8180 C.3     1  UNL1        0.0609
     21 C         141.6951  137.7145  157.2480 C.3     1  UNL1        0.1687
     22 C         142.8648  138.3630  157.9272 C.3     1  UNL1        0.0609
     23 C         142.6558  139.1667  159.1763 C.3     1  UNL1        0.0758
     24 O         141.9041  136.9108  155.9989 O.3     1  UNL1       -0.4790
     25 C         142.1525  135.4343  156.0898 C.ar    1  UNL1        0.1393
     26 C         141.2872  134.4796  155.3220 C.ar    1  UNL1        0.0378
     27 C         141.5355  133.0031  155.4129 C.ar    1  UNL1        0.0154
     28 C         142.6492  132.4813  156.2717 C.ar    1  UNL1        0.0684
     29 CL        142.8975  131.0049  156.3626 Cl      1  UNL1       -0.0814
     30 C         143.5145  133.4361  157.0396 C.ar    1  UNL1        0.0712
     31 CL        144.6282  132.9144  157.8984 Cl      1  UNL1       -0.0813
     32 C         143.2662  134.9126  156.9487 C.ar    1  UNL1        0.0491
@<TRIPOS>UNITY_ATOM_ATTR
15 1
charge -1
@<TRIPOS>BOND
     1    15    16   ar
     2    16    17   ar
     3    16     9    1
     4     9    10   ar
     5    10    11   ar
     6    11    12   ar
     7    12    13   ar
     8    13     1    1
     9     1     2    2
    10     1     3   am
    11     3     4    1
    12     4     5    1
    13     5     6    1
    14     6    18    1
    15    18    19    1
    16    19    20    1
    17    20    21    1
    18    21    24    1
    19    24    25    1
    20    25    26   ar
    21    26    27   ar
    22    27    28   ar
    23    28    29    1
    24    28    30   ar
    25    30    31    1
    26    30    32   ar
    27    21    22    1
    28    22    23    1
    29     6     7    1
    30     7     8    1
    31    13    14   ar
    32    14     9   ar
    33     8     3    1
    34    23    18    1
    35    32    25   ar
@<TRIPOS>MOLECULE
*****
 32 35 0 0 0
SMALL
GASTEIGER

@<TRIPOS>ATOM
      1 C         140.1028  142.6013  165.6588 C.2     1  UNL1        0.2490
      2 O         139.4578  143.9548  165.6128 O.2     1  UNL1       -0.2699
      3 N         140.5665  141.9480  164.3907 N.am    1  UNL1       -0.2760
      4 C         141.2114  140.5945  164.4367 C.3     1  UNL1        0.0951
      5 C         141.6751  139.9412  163.1685 C.3     1  UNL1        0.0375
      6 C         141.4938  140.6413  161.8544 C.3     1  UNL1        0.0609
      7 C         140.8489  141.9948  161.8084 C.3     1  UNL1        0.0375
      8 C         140.3852  142.6481  163.0765 C.3     1  UNL1        0.0951
      9 C         141.3557  141.7962  169.3374 C.ar    1  UNL1        0.0141
     10 C         140.6466  140.5010  169.6012 C.ar    1  UNL1        0.0011
     11 C         139.7563  139.9059  168.5510 C.ar    1  UNL1        0.0002
     12 C         139.5750  140.6060  167.2368 C.ar    1  UNL1        0.0045
     13 C         140.2840  141.9012  166.9730 C.ar    1  UNL1        0.0536
     14 C         141.1744  142.4963  168.0232 C.ar    1  UNL1        0.0056
     15 O         143.5822  142.9562  170.0060 O.co2   1  UNL1       -0.5446
     16 C         142.2461  142.3913  170.3876 C.2     1  UNL1        0.0729
     17 O         141.8004  142.4216  171.8195 O.co2   1  UNL1       -0.5446
     18 N         141.9575  139.9880  160.5863 N.3     1  UNL1       -0.2736
     19 C         143.3050  140.3235  160.0190 C.3     1  UNL1        0.0758
     20 C         143.7687  139.6701  158.7509 C.3     1  UNL1        0.0609
     21 C         142.8849  138.6813  158.0501 C.3     1  UNL1        0.1687
     22 C         141.5374  138.3458  158.6173 C.3     1  UNL1        0.0609
     23 C         141.0737  138.9992  159.8854 C.3     1  UNL1        0.0758
     24 O         143.3486  138.0279  156.7820 O.3     1  UNL1       -0.4790
     25 C         142.7913  136.6953  156.3776 C.ar    1  UNL1        0.1393
     26 C         141.6928  136.6195  155.3590 C.ar    1  UNL1        0.0378
     27 C         141.1355  135.2869  154.9547 C.ar    1  UNL1        0.0154
     28 C         141.6767  134.0300  155.5689 C.ar    1  UNL1        0.0684
     29 CL        141.1195  132.6974  155.1646 Cl      1  UNL1       -0.0814
     30 C         142.7753  134.1057  156.5876 C.ar    1  UNL1        0.0712
     31 CL        143.3165  132.8489  157.2018 Cl      1  UNL1       -0.0813
     32 C         143.3326  135.4384  156.9919 C.ar    1  UNL1        0.0491
@<TRIPOS>UNITY_ATOM_ATTR
15 1
charge -1
@<TRIPOS>BOND
     1    15    16   ar
     2    16    17   ar
     3    16     9    1
     4     9    10   ar
     5    10    11   ar
     6    11    12   ar
     7    12    13   ar
     8    13     1    1
     9     1     2    2
    10     1     3   am
    11     3     4    1
    12     4     5    1
    13     5     6    1
    14     6    18    1
    15    18    19    1
    16    19    20    1
    17    20    21    1
    18    21    24    1
    19    24    25    1
    20    25    26   ar
    21    26    27   ar
    22    27    28   ar
    23    28    29    1
    24    28    30   ar
    25    30    31    1
    26    30    32   ar
    27    21    22    1
    28    22    23    1
    29     6     7    1
    30     7     8    1
    31    13    14   ar
    32    14     9   ar
    33     8     3    1
    34    23    18    1
    35    32    25   ar
