@<TRIPOS>MOLECULE
*****
 32 35 0 0 0
SMALL
GASTEIGER

@<TRIPOS>ATOM
      1 C         141.5266  142.3721  166.3423 C.ar    1  UNL1        0.0860
      2 C         141.0890  143.4885  165.4412 C.ar    1  UNL1        0.0250
      3 C         142.1489  143.6845  164.3979 C.ar    1  UNL1        0.0668
      4 C         142.2603  144.6407  163.2476 C.ar    1  UNL1        0.1333
      5 N         143.4642  144.6016  162.3537 N.ar    1  UNL1       -0.2108
      6 C         144.5567  143.6063  162.6101 C.ar    1  UNL1        0.1773
      7 N         144.4453  142.6501  163.7604 N.ar    1  UNL1       -0.3214
      8 C         143.2414  142.6892  164.6543 C.ar    1  UNL1        0.1443
      9 N         142.8568  141.8781  165.8560 N.ar    1  UNL1       -0.2283
     10 H         145.1624  141.9969  163.9287 H       1  UNL1        0.1689
     11 C         140.0687  140.5181  167.4322 C.ar    1  UNL1        0.1399
     12 C         139.3094  139.9886  168.6124 C.ar    1  UNL1        0.0369
     13 C         139.2485  140.7834  169.8830 C.ar    1  UNL1        0.0031
     14 C         139.9469  142.1078  169.9734 C.ar    1  UNL1        0.0002
     15 C         140.7063  142.6374  168.7932 C.ar    1  UNL1        0.0045
     16 C         140.7672  141.8425  167.5226 C.ar    1  UNL1        0.0517
     17 O         140.1297  139.7233  166.1615 O.3     1  UNL1       -0.4754
     18 C         138.9726  137.7988  164.8548 C.3     1  UNL1        0.0512
     19 C         138.8855  139.0905  165.6123 C.3     1  UNL1        0.2055
     20 N         141.1677  145.6360  162.9911 N.pl3   1  UNL1       -0.3158
     21 H         141.2169  146.5347  163.3901 H       1  UNL1        0.1484
     22 C         140.0002  145.2620  162.1269 C.3     1  UNL1        0.0954
     23 C         139.0979  144.1341  162.5321 C.ar    1  UNL1       -0.0045
     24 C         139.0673  142.8708  161.7239 C.ar    1  UNL1       -0.0027
     25 C         138.1651  141.7431  162.1290 C.ar    1  UNL1       -0.0003
     26 C         137.2937  141.8786  163.3423 C.ar    1  UNL1       -0.0000
     27 C         137.3243  143.1419  164.1505 C.ar    1  UNL1       -0.0003
     28 C         138.2265  144.2696  163.7454 C.ar    1  UNL1       -0.0027
     29 C         139.7348  146.0157  160.8575 C.3     1  UNL1        0.0558
     30 C         140.5629  145.7438  159.6367 C.3     1  UNL1        0.1392
     31 O         142.0110  145.3788  159.7787 O.3     1  UNL1       -0.3819
     32 H         142.5004  146.1333  160.1422 H       1  UNL1        0.2104
@<TRIPOS>BOND
     1    18    19    1
     2    19    17    1
     3    17    11    1
     4    11    12   ar
     5    12    13   ar
     6    13    14   ar
     7    14    15   ar
     8    15    16   ar
     9    16     1    1
    10     1     2   ar
    11     2     3   ar
    12     3     4   ar
    13     4    20    1
    14    20    22    1
    15    22    29    1
    16    29    30    1
    17    30    31    1
    18    22    23    1
    19    23    24   ar
    20    24    25   ar
    21    25    26   ar
    22    26    27   ar
    23    27    28   ar
    24     4     5   ar
    25     5     6   ar
    26     6     7   ar
    27     7     8   ar
    28     8     9   ar
    29    16    11   ar
    30     9     1   ar
    31     8     3    1
    32    28    23   ar
    33    20    21    1
    34    31    32    1
    35     7    10    1
@<TRIPOS>MOLECULE
*****
 32 35 0 0 0
SMALL
GASTEIGER

@<TRIPOS>ATOM
      1 C         140.2554  142.3918  166.5502 C.ar    1  UNL1        0.0860
      2 C         140.1341  143.3832  165.4311 C.ar    1  UNL1        0.0250
      3 C         139.1742  142.8272  164.4213 C.ar    1  UNL1        0.0668
      4 C         138.6688  143.3641  163.1151 C.ar    1  UNL1        0.1333
      5 N         137.6917  142.5661  162.3038 N.ar    1  UNL1       -0.2108
      6 C         137.2198  141.2311  162.7989 C.ar    1  UNL1        0.1773
      7 N         137.7252  140.6941  164.1051 N.ar    1  UNL1       -0.3214
      8 C         138.7023  141.4922  164.9164 C.ar    1  UNL1        0.1443
      9 N         139.3706  141.2231  166.2321 N.ar    1  UNL1       -0.2283
     10 H         137.4155  139.8179  164.4300 H       1  UNL1        0.1689
     11 C         142.5604  142.1575  167.7260 C.ar    1  UNL1        0.1399
     12 C         143.4163  142.3083  168.9485 C.ar    1  UNL1        0.0369
     13 C         142.8233  142.8441  170.2178 C.ar    1  UNL1        0.0031
     14 C         141.3743  143.2291  170.2646 C.ar    1  UNL1        0.0002
     15 C         140.5184  143.0784  169.0421 C.ar    1  UNL1        0.0045
     16 C         141.1114  142.5426  167.7728 C.ar    1  UNL1        0.0517
     17 O         143.1534  141.6217  166.4566 O.3     1  UNL1       -0.4754
     18 C         142.7431  139.1657  167.1979 C.3     1  UNL1        0.0512
     19 C         143.0044  140.1690  166.1139 C.3     1  UNL1        0.2055
     20 N         139.1407  144.6992  162.6201 N.pl3   1  UNL1       -0.3158
     21 H         138.6012  145.5054  162.7883 H       1  UNL1        0.1484
     22 C         140.4346  144.8060  161.8687 C.3     1  UNL1        0.0954
     23 C         141.7204  144.4040  162.5286 C.ar    1  UNL1       -0.0045
     24 C         142.4148  145.3539  163.4589 C.ar    1  UNL1       -0.0027
     25 C         143.7005  144.9520  164.1188 C.ar    1  UNL1       -0.0003
     26 C         144.2918  143.6003  163.8482 C.ar    1  UNL1       -0.0000
     27 C         143.5974  142.6505  162.9179 C.ar    1  UNL1       -0.0003
     28 C         142.3117  143.0523  162.2580 C.ar    1  UNL1       -0.0027
     29 C         140.4428  145.3146  160.4577 C.3     1  UNL1        0.0558
     30 C         139.9788  144.4298  159.3388 C.3     1  UNL1        0.1392
     31 O         138.9103  143.4063  159.5858 O.3     1  UNL1       -0.3819
     32 H         139.2438  142.7321  160.1983 H       1  UNL1        0.2104
@<TRIPOS>BOND
     1    18    19    1
     2    19    17    1
     3    17    11    1
     4    11    12   ar
     5    12    13   ar
     6    13    14   ar
     7    14    15   ar
     8    15    16   ar
     9    16     1    1
    10     1     2   ar
    11     2     3   ar
    12     3     4   ar
    13     4    20    1
    14    20    22    1
    15    22    29    1
    16    29    30    1
    17    30    31    1
    18    22    23    1
    19    23    24   ar
    20    24    25   ar
    21    25    26   ar
    22    26    27   ar
    23    27    28   ar
    24     4     5   ar
    25     5     6   ar
    26     6     7   ar
    27     7     8   ar
    28     8     9   ar
    29    16    11   ar
    30     9     1   ar
    31     8     3    1
    32    28    23   ar
    33    20    21    1
    34    31    32    1
    35     7    10    1
@<TRIPOS>MOLECULE
*****
 32 35 0 0 0
SMALL
GASTEIGER

@<TRIPOS>ATOM
      1 C         139.5801  140.1173  165.7859 C.ar    1  UNL1        0.0860
      2 C         140.6050  139.3060  165.0502 C.ar    1  UNL1        0.0250
      3 C         140.0086  138.8836  163.7402 C.ar    1  UNL1        0.0668
      4 C         140.5545  138.0690  162.6051 C.ar    1  UNL1        0.1333
      5 N         139.7069  137.8047  161.3961 N.ar    1  UNL1       -0.2108
      6 C         138.3135  138.3550  161.3222 C.ar    1  UNL1        0.1773
      7 N         137.7677  139.1696  162.4573 N.ar    1  UNL1       -0.3214
      8 C         138.6152  139.4339  163.6663 C.ar    1  UNL1        0.1443
      9 N         138.3504  140.1964  164.9306 N.ar    1  UNL1       -0.2283
     10 H         136.8531  139.5308  162.4088 H       1  UNL1        0.1689
     11 C         140.3955  142.0903  167.2666 C.ar    1  UNL1        0.1399
     12 C         140.5697  142.7133  168.6199 C.ar    1  UNL1        0.0369
     13 C         140.1027  141.9862  169.8460 C.ar    1  UNL1        0.0031
     14 C         139.4615  140.6362  169.7187 C.ar    1  UNL1        0.0002
     15 C         139.2872  140.0132  168.3654 C.ar    1  UNL1        0.0045
     16 C         139.7543  140.7403  167.1393 C.ar    1  UNL1        0.0517
     17 O         140.8626  142.8174  166.0405 O.3     1  UNL1       -0.4754
     18 C         143.4183  142.5490  166.4229 C.3     1  UNL1        0.0512
     19 C         142.2379  142.5654  165.4975 C.3     1  UNL1        0.2055
     20 N         141.9480  137.5186  162.6791 N.pl3   1  UNL1       -0.3158
     21 H         142.1480  136.7640  163.2788 H       1  UNL1        0.1484
     22 C         143.0367  138.1182  161.8392 C.3     1  UNL1        0.0954
     23 C         143.8565  139.2549  162.3739 C.ar    1  UNL1       -0.0045
     24 C         144.4385  139.1756  163.7541 C.ar    1  UNL1       -0.0027
     25 C         145.2584  140.3122  164.2889 C.ar    1  UNL1       -0.0003
     26 C         145.4962  141.5281  163.4434 C.ar    1  UNL1       -0.0000
     27 C         144.9141  141.6074  162.0632 C.ar    1  UNL1       -0.0003
     28 C         144.0943  140.4708  161.5285 C.ar    1  UNL1       -0.0027
     29 C         143.3055  137.5811  160.4648 C.3     1  UNL1        0.0558
     30 C         142.4450  138.0061  159.3119 C.3     1  UNL1        0.1392
     31 O         141.5916  139.2344  159.4258 O.3     1  UNL1       -0.3819
     32 H         140.9054  139.0903  160.0961 H       1  UNL1        0.2104
@<TRIPOS>BOND
     1    18    19    1
     2    19    17    1
     3    17    11    1
     4    11    12   ar
     5    12    13   ar
     6    13    14   ar
     7    14    15   ar
     8    15    16   ar
     9    16     1    1
    10     1     2   ar
    11     2     3   ar
    12     3     4   ar
    13     4    20    1
    14    20    22    1
    15    22    29    1
    16    29    30    1
    17    30    31    1
    18    22    23    1
    19    23    24   ar
    20    24    25   ar
    21    25    26   ar
    22    26    27   ar
    23    27    28   ar
    24     4     5   ar
    25     5     6   ar
    26     6     7   ar
    27     7     8   ar
    28     8     9   ar
    29    16    11   ar
    30     9     1   ar
    31     8     3    1
    32    28    23   ar
    33    20    21    1
    34    31    32    1
    35     7    10    1
@<TRIPOS>MOLECULE
*****
 32 35 0 0 0
SMALL
GASTEIGER

@<TRIPOS>ATOM
      1 C         143.1930  141.8209  165.3535 C.ar    1  UNL1        0.0860
      2 C         142.6881  143.0287  164.6211 C.ar    1  UNL1        0.0250
      3 C         143.1601  142.9398  163.2000 C.ar    1  UNL1        0.0668
      4 C         142.9675  143.8456  162.0200 C.ar    1  UNL1        0.1333
      5 N         143.5713  143.4888  160.6942 N.ar    1  UNL1       -0.2108
      6 C         144.3678  142.2261  160.5483 C.ar    1  UNL1        0.1773
      7 N         144.5605  141.3204  161.7284 N.ar    1  UNL1       -0.3214
      8 C         143.9566  141.6772  163.0542 C.ar    1  UNL1        0.1443
      9 N         143.9769  140.9857  164.3851 N.ar    1  UNL1       -0.2283
     10 H         145.0833  140.4916  161.6326 H       1  UNL1        0.1689
     11 C         142.2626  140.2305  167.1853 C.ar    1  UNL1        0.1399
     12 C         142.0252  139.9136  168.6320 C.ar    1  UNL1        0.0369
     13 C         142.4807  140.8700  169.6939 C.ar    1  UNL1        0.0031
     14 C         143.1736  142.1435  169.3090 C.ar    1  UNL1        0.0002
     15 C         143.4111  142.4604  167.8622 C.ar    1  UNL1        0.0045
     16 C         142.9555  141.5040  166.8004 C.ar    1  UNL1        0.0517
     17 O         141.8070  139.2740  166.1233 O.3     1  UNL1       -0.4754
     18 C         139.5081  140.4785  166.0047 C.3     1  UNL1        0.0512
     19 C         140.4720  139.4633  165.4661 C.3     1  UNL1        0.2055
     20 N         142.1709  145.1083  162.1659 N.pl3   1  UNL1       -0.3158
     21 H         142.6033  145.9273  162.5000 H       1  UNL1        0.1484
     22 C         140.7156  145.1231  161.8028 C.3     1  UNL1        0.0954
     23 C         139.7024  144.5379  162.7415 C.ar    1  UNL1       -0.0045
     24 C         138.7403  143.4963  162.2521 C.ar    1  UNL1       -0.0027
     25 C         137.7272  142.9111  163.1907 C.ar    1  UNL1       -0.0003
     26 C         137.6761  143.3675  164.6186 C.ar    1  UNL1       -0.0000
     27 C         138.6382  144.4091  165.1080 C.ar    1  UNL1       -0.0003
     28 C         139.6513  144.9943  164.1694 C.ar    1  UNL1       -0.0027
     29 C         140.2735  145.7231  160.5011 C.3     1  UNL1        0.0558
     30 C         140.8137  145.1897  159.2075 C.3     1  UNL1        0.1392
     31 O         142.2540  145.4075  158.8495 O.3     1  UNL1       -0.3819
     32 H         142.4139  146.3546  158.7139 H       1  UNL1        0.2104
@<TRIPOS>BOND
     1    18    19    1
     2    19    17    1
     3    17    11    1
     4    11    12   ar
     5    12    13   ar
     6    13    14   ar
     7    14    15   ar
     8    15    16   ar
     9    16     1    1
    10     1     2   ar
    11     2     3   ar
    12     3     4   ar
    13     4    20    1
    14    20    22    1
    15    22    29    1
    16    29    30    1
    17    30    31    1
    18    22    23    1
    19    23    24   ar
    20    24    25   ar
    21    25    26   ar
    22    26    27   ar
    23    27    28   ar
    24     4     5   ar
    25     5     6   ar
    26     6     7   ar
    27     7     8   ar
    28     8     9   ar
    29    16    11   ar
    30     9     1   ar
    31     8     3    1
    32    28    23   ar
    33    20    21    1
    34    31    32    1
    35     7    10    1
@<TRIPOS>MOLECULE
*****
 32 35 0 0 0
SMALL
GASTEIGER

@<TRIPOS>ATOM
      1 C         140.0128  141.7324  166.6751 C.ar    1  UNL1        0.0860
      2 C         139.0984  141.0652  165.6909 C.ar    1  UNL1        0.0250
      3 C         138.7299  142.0737  164.6433 C.ar    1  UNL1        0.0668
      4 C         137.8578  141.9836  163.4262 C.ar    1  UNL1        0.1333
      5 N         137.6723  143.1839  162.5459 N.ar    1  UNL1       -0.2108
      6 C         138.3589  144.4742  162.8828 C.ar    1  UNL1        0.1773
      7 N         139.2310  144.5643  164.0999 N.ar    1  UNL1       -0.3214
      8 C         139.4165  143.3640  164.9801 C.ar    1  UNL1        0.1443
      9 N         140.2094  143.1531  166.2358 N.ar    1  UNL1       -0.2283
     10 H         139.6816  145.4112  164.3209 H       1  UNL1        0.1689
     11 C         142.0862  140.7595  167.9018 C.ar    1  UNL1        0.1399
     12 C         142.6968  140.1185  169.1126 C.ar    1  UNL1        0.0369
     13 C         141.8448  139.8095  170.3078 C.ar    1  UNL1        0.0031
     14 C         140.3820  140.1415  170.2921 C.ar    1  UNL1        0.0002
     15 C         139.7714  140.7824  169.0812 C.ar    1  UNL1        0.0045
     16 C         140.6234  141.0914  167.8861 C.ar    1  UNL1        0.0517
     17 O         142.9382  141.0685  166.7065 O.3     1  UNL1       -0.4754
     18 C         142.5860  140.6714  164.1632 C.3     1  UNL1        0.0512
     19 C         142.9346  140.1455  165.5241 C.3     1  UNL1        0.2055
     20 N         137.1712  140.6931  163.0894 N.pl3   1  UNL1       -0.3158
     21 H         136.2712  140.5075  163.4427 H       1  UNL1        0.1484
     22 C         137.8558  139.6855  162.2141 C.3     1  UNL1        0.0954
     23 C         138.9469  138.8227  162.7756 C.ar    1  UNL1       -0.0045
     24 C         140.1626  138.5195  161.9508 C.ar    1  UNL1       -0.0027
     25 C         141.2537  137.6568  162.5122 C.ar    1  UNL1       -0.0003
     26 C         141.1291  137.0972  163.8983 C.ar    1  UNL1       -0.0000
     27 C         139.9134  137.4004  164.7230 C.ar    1  UNL1       -0.0003
     28 C         138.8223  138.2631  164.1617 C.ar    1  UNL1       -0.0027
     29 C         137.4494  139.5407  160.7776 C.3     1  UNL1        0.0558
     30 C         138.0195  140.4620  159.7403 C.3     1  UNL1        0.1392
     31 O         137.6616  140.2777  158.2952 O.3     1  UNL1       -0.3819
     32 H         138.0207  139.4343  157.9782 H       1  UNL1        0.2104
@<TRIPOS>BOND
     1    18    19    1
     2    19    17    1
     3    17    11    1
     4    11    12   ar
     5    12    13   ar
     6    13    14   ar
     7    14    15   ar
     8    15    16   ar
     9    16     1    1
    10     1     2   ar
    11     2     3   ar
    12     3     4   ar
    13     4    20    1
    14    20    22    1
    15    22    29    1
    16    29    30    1
    17    30    31    1
    18    22    23    1
    19    23    24   ar
    20    24    25   ar
    21    25    26   ar
    22    26    27   ar
    23    27    28   ar
    24     4     5   ar
    25     5     6   ar
    26     6     7   ar
    27     7     8   ar
    28     8     9   ar
    29    16    11   ar
    30     9     1   ar
    31     8     3    1
    32    28    23   ar
    33    20    21    1
    34    31    32    1
    35     7    10    1
@<TRIPOS>MOLECULE
*****
 32 35 0 0 0
SMALL
GASTEIGER

@<TRIPOS>ATOM
      1 C         143.0742  142.1855  165.8905 C.ar    1  UNL1        0.0860
      2 C         143.3009  140.8929  165.1640 C.ar    1  UNL1        0.0250
      3 C         143.8962  141.2122  163.8247 C.ar    1  UNL1        0.0668
      4 C         144.3279  140.3387  162.6842 C.ar    1  UNL1        0.1333
      5 N         144.9008  140.9551  161.4426 N.ar    1  UNL1       -0.2108
      6 C         145.0421  142.4450  161.3413 C.ar    1  UNL1        0.1773
      7 N         144.6103  143.3185  162.4818 N.ar    1  UNL1       -0.3214
      8 C         144.0374  142.7021  163.7235 C.ar    1  UNL1        0.1443
      9 N         143.5294  143.3036  165.0002 N.ar    1  UNL1       -0.2283
     10 H         144.7030  144.2963  162.4153 H       1  UNL1        0.1689
     11 C         141.0112  142.4732  167.4434 C.ar    1  UNL1        0.1399
     12 C         140.4311  142.6216  168.8187 C.ar    1  UNL1        0.0369
     13 C         141.3340  142.6309  170.0164 C.ar    1  UNL1        0.0031
     14 C         142.8170  142.4917  169.8389 C.ar    1  UNL1        0.0002
     15 C         143.3970  142.3433  168.4636 C.ar    1  UNL1        0.0045
     16 C         142.4942  142.3340  167.2659 C.ar    1  UNL1        0.0517
     17 O         140.1083  142.4639  166.2455 O.3     1  UNL1       -0.4754
     18 C         138.4349  143.7863  164.7620 C.3     1  UNL1        0.0512
     19 C         139.6488  143.7583  165.6427 C.3     1  UNL1        0.2055
     20 N         144.1866  138.8488  162.7855 N.pl3   1  UNL1       -0.3158
     21 H         144.8255  138.3293  163.3252 H       1  UNL1        0.1484
     22 C         143.0720  138.1504  162.0644 C.3     1  UNL1        0.0954
     23 C         141.7379  137.9822  162.7293 C.ar    1  UNL1       -0.0045
     24 C         141.6606  137.7674  164.2118 C.ar    1  UNL1       -0.0027
     25 C         140.3266  137.5993  164.8767 C.ar    1  UNL1       -0.0003
     26 C         139.0700  137.6459  164.0591 C.ar    1  UNL1       -0.0000
     27 C         139.1473  137.8608  162.5766 C.ar    1  UNL1       -0.0003
     28 C         140.4813  138.0289  161.9117 C.ar    1  UNL1       -0.0027
     29 C         143.2915  137.6201  160.6786 C.3     1  UNL1        0.0558
     30 C         143.0490  138.5032  159.4906 C.3     1  UNL1        0.1392
     31 O         144.1081  139.4670  159.0439 O.3     1  UNL1       -0.3819
     32 H         144.2373  140.1445  159.7260 H       1  UNL1        0.2104
@<TRIPOS>BOND
     1    18    19    1
     2    19    17    1
     3    17    11    1
     4    11    12   ar
     5    12    13   ar
     6    13    14   ar
     7    14    15   ar
     8    15    16   ar
     9    16     1    1
    10     1     2   ar
    11     2     3   ar
    12     3     4   ar
    13     4    20    1
    14    20    22    1
    15    22    29    1
    16    29    30    1
    17    30    31    1
    18    22    23    1
    19    23    24   ar
    20    24    25   ar
    21    25    26   ar
    22    26    27   ar
    23    27    28   ar
    24     4     5   ar
    25     5     6   ar
    26     6     7   ar
    27     7     8   ar
    28     8     9   ar
    29    16    11   ar
    30     9     1   ar
    31     8     3    1
    32    28    23   ar
    33    20    21    1
    34    31    32    1
    35     7    10    1
@<TRIPOS>MOLECULE
*****
 32 35 0 0 0
SMALL
GASTEIGER

@<TRIPOS>ATOM
      1 C         139.8233  140.5834  166.1171 C.ar    1  UNL1        0.0860
      2 C         139.7400  141.9565  165.5190 C.ar    1  UNL1        0.0250
      3 C         138.9526  141.8604  164.2458 C.ar    1  UNL1        0.0668
      4 C         138.5507  142.8923  163.2339 C.ar    1  UNL1        0.1333
      5 N         137.7457  142.4918  162.0334 N.ar    1  UNL1       -0.2108
      6 C         137.3425  141.0594  161.8446 C.ar    1  UNL1        0.1773
      7 N         137.7443  140.0275  162.8565 N.ar    1  UNL1       -0.3214
      8 C         138.5494  140.4281  164.0570 C.ar    1  UNL1        0.1443
      9 N         139.0875  139.6388  165.2135 N.ar    1  UNL1       -0.2283
     10 H         137.4797  139.0874  162.7326 H       1  UNL1        0.1689
     11 C         141.8640  139.5539  167.3523 C.ar    1  UNL1        0.1399
     12 C         142.5609  139.1893  168.6295 C.ar    1  UNL1        0.0369
     13 C         141.9138  139.4899  169.9490 C.ar    1  UNL1        0.0031
     14 C         140.5700  140.1549  169.9912 C.ar    1  UNL1        0.0002
     15 C         139.8732  140.5194  168.7139 C.ar    1  UNL1        0.0045
     16 C         140.5202  140.2189  167.3944 C.ar    1  UNL1        0.0517
     17 O         142.5110  139.2533  166.0327 O.3     1  UNL1       -0.4754
     18 C         144.5687  139.7279  164.5192 C.3     1  UNL1        0.0512
     19 C         143.4932  140.2206  165.4414 C.3     1  UNL1        0.2055
     20 N         138.9540  144.3247  163.4227 N.pl3   1  UNL1       -0.3158
     21 H         138.4574  144.8972  164.0512 H       1  UNL1        0.1484
     22 C         140.1138  144.8849  162.6539 C.3     1  UNL1        0.0954
     23 C         141.5092  144.4305  162.9646 C.ar    1  UNL1       -0.0045
     24 C         142.3775  145.2450  163.8771 C.ar    1  UNL1       -0.0027
     25 C         143.7729  144.7907  164.1877 C.ar    1  UNL1       -0.0003
     26 C         144.2999  143.5218  163.5860 C.ar    1  UNL1       -0.0000
     27 C         143.4315  142.7073  162.6736 C.ar    1  UNL1       -0.0003
     28 C         142.0362  143.1616  162.3629 C.ar    1  UNL1       -0.0027
     29 C         139.8783  145.8995  161.5745 C.3     1  UNL1        0.0558
     30 C         140.2626  145.5904  160.1579 C.3     1  UNL1        0.1392
     31 O         141.7024  145.6500  159.7414 O.3     1  UNL1       -0.3819
     32 H         142.0181  146.5654  159.7992 H       1  UNL1        0.2104
@<TRIPOS>BOND
     1    18    19    1
     2    19    17    1
     3    17    11    1
     4    11    12   ar
     5    12    13   ar
     6    13    14   ar
     7    14    15   ar
     8    15    16   ar
     9    16     1    1
    10     1     2   ar
    11     2     3   ar
    12     3     4   ar
    13     4    20    1
    14    20    22    1
    15    22    29    1
    16    29    30    1
    17    30    31    1
    18    22    23    1
    19    23    24   ar
    20    24    25   ar
    21    25    26   ar
    22    26    27   ar
    23    27    28   ar
    24     4     5   ar
    25     5     6   ar
    26     6     7   ar
    27     7     8   ar
    28     8     9   ar
    29    16    11   ar
    30     9     1   ar
    31     8     3    1
    32    28    23   ar
    33    20    21    1
    34    31    32    1
    35     7    10    1
@<TRIPOS>MOLECULE
*****
 32 35 0 0 0
SMALL
GASTEIGER

@<TRIPOS>ATOM
      1 C         140.5755  143.0045  166.3981 C.ar    1  UNL1        0.0860
      2 C         141.7975  143.0283  165.5286 C.ar    1  UNL1        0.0250
      3 C         141.4945  143.8728  164.3264 C.ar    1  UNL1        0.0668
      4 C         142.3199  144.2526  163.1329 C.ar    1  UNL1        0.1333
      5 N         141.7360  145.1304  162.0659 N.ar    1  UNL1       -0.2108
      6 C         140.3269  145.6285  162.1925 C.ar    1  UNL1        0.1773
      7 N         139.5015  145.2487  163.3860 N.ar    1  UNL1       -0.3214
      8 C         140.0854  144.3709  164.4530 C.ar    1  UNL1        0.1443
      9 N         139.5173  143.8343  165.7334 N.ar    1  UNL1       -0.2283
     10 H         138.5766  145.5757  163.4691 H       1  UNL1        0.1689
     11 C         140.3594  140.7805  167.7238 C.ar    1  UNL1        0.1399
     12 C         140.2200  140.0544  169.0289 C.ar    1  UNL1        0.0369
     13 C         140.1571  140.8262  170.3135 C.ar    1  UNL1        0.0031
     14 C         140.2338  142.3241  170.2930 C.ar    1  UNL1        0.0002
     15 C         140.3732  143.0502  168.9879 C.ar    1  UNL1        0.0045
     16 C         140.4360  142.2784  167.7033 C.ar    1  UNL1        0.0517
     17 O         140.4222  140.0087  166.4390 O.3     1  UNL1       -0.4754
     18 C         138.0014  139.0711  166.5404 C.3     1  UNL1        0.0512
     19 C         139.1557  139.6040  165.7446 C.3     1  UNL1        0.2055
     20 N         143.7291  143.7544  163.0063 N.pl3   1  UNL1       -0.3158
     21 H         144.4747  144.2915  163.3597 H       1  UNL1        0.1484
     22 C         144.0023  142.4379  162.3413 C.3     1  UNL1        0.0954
     23 C         143.6863  141.1571  163.0554 C.ar    1  UNL1       -0.0045
     24 C         142.4274  140.4088  162.7314 C.ar    1  UNL1       -0.0027
     25 C         142.1113  139.1280  163.4454 C.ar    1  UNL1       -0.0003
     26 C         143.0542  138.5957  164.4833 C.ar    1  UNL1       -0.0000
     27 C         144.3132  139.3440  164.8073 C.ar    1  UNL1       -0.0003
     28 C         144.6292  140.6247  164.0933 C.ar    1  UNL1       -0.0027
     29 C         144.5915  142.4022  160.9624 C.3     1  UNL1        0.0558
     30 C         143.7236  142.6700  159.7687 C.3     1  UNL1        0.1392
     31 O         142.8738  143.9053  159.7213 O.3     1  UNL1       -0.3819
     32 H         142.1923  143.8555  160.4097 H       1  UNL1        0.2104
@<TRIPOS>BOND
     1    18    19    1
     2    19    17    1
     3    17    11    1
     4    11    12   ar
     5    12    13   ar
     6    13    14   ar
     7    14    15   ar
     8    15    16   ar
     9    16     1    1
    10     1     2   ar
    11     2     3   ar
    12     3     4   ar
    13     4    20    1
    14    20    22    1
    15    22    29    1
    16    29    30    1
    17    30    31    1
    18    22    23    1
    19    23    24   ar
    20    24    25   ar
    21    25    26   ar
    22    26    27   ar
    23    27    28   ar
    24     4     5   ar
    25     5     6   ar
    26     6     7   ar
    27     7     8   ar
    28     8     9   ar
    29    16    11   ar
    30     9     1   ar
    31     8     3    1
    32    28    23   ar
    33    20    21    1
    34    31    32    1
    35     7    10    1
@<TRIPOS>MOLECULE
*****
 32 35 0 0 0
SMALL
GASTEIGER

@<TRIPOS>ATOM
      1 C         140.6074  142.8667  164.8113 C.ar    1  UNL1        0.0860
      2 C         141.8470  143.0649  163.9903 C.ar    1  UNL1        0.0250
      3 C         141.4707  143.8405  162.7627 C.ar    1  UNL1        0.0668
      4 C         142.2785  144.3271  161.5962 C.ar    1  UNL1        0.1333
      5 N         141.6141  145.0948  160.4920 N.ar    1  UNL1       -0.2108
      6 C         140.1421  145.3759  160.5543 C.ar    1  UNL1        0.1773
      7 N         139.3343  144.8893  161.7209 N.ar    1  UNL1       -0.3214
      8 C         139.9987  144.1216  162.8250 C.ar    1  UNL1        0.1443
      9 N         139.4651  143.5198  164.0911 N.ar    1  UNL1       -0.2283
     10 H         138.3681  145.0738  161.7618 H       1  UNL1        0.1689
     11 C         140.4962  140.6430  166.1504 C.ar    1  UNL1        0.1399
     12 C         140.4134  139.9188  167.4613 C.ar    1  UNL1        0.0369
     13 C         140.3589  140.6941  168.7443 C.ar    1  UNL1        0.0031
     14 C         140.3873  142.1935  168.7162 C.ar    1  UNL1        0.0002
     15 C         140.4701  142.9177  167.4053 C.ar    1  UNL1        0.0045
     16 C         140.5246  142.1425  166.1224 C.ar    1  UNL1        0.0517
     17 O         140.5507  139.8677  164.8674 O.3     1  UNL1       -0.4754
     18 C         138.0518  140.1608  164.2199 C.3     1  UNL1        0.0512
     19 C         139.2901  139.3159  164.2704 C.3     1  UNL1        0.2055
     20 N         143.7506  144.0459  161.5338 N.pl3   1  UNL1       -0.3158
     21 H         144.3959  144.7377  161.8065 H       1  UNL1        0.1484
     22 C         144.2396  142.7108  161.0560 C.3     1  UNL1        0.0954
     23 C         144.3632  141.5684  162.0203 C.ar    1  UNL1       -0.0045
     24 C         145.2960  141.6721  163.1903 C.ar    1  UNL1       -0.0027
     25 C         145.4196  140.5297  164.1545 C.ar    1  UNL1       -0.0003
     26 C         144.6103  139.2837  163.9487 C.ar    1  UNL1       -0.0000
     27 C         143.6774  139.1800  162.7787 C.ar    1  UNL1       -0.0003
     28 C         143.5538  140.3224  161.8145 C.ar    1  UNL1       -0.0027
     29 C         144.6050  142.5180  159.6141 C.3     1  UNL1        0.0558
     30 C         143.6048  142.8255  158.5393 C.3     1  UNL1        0.1392
     31 O         143.2806  144.2507  158.2020 O.3     1  UNL1       -0.3819
     32 H         142.8405  144.6698  158.9580 H       1  UNL1        0.2104
@<TRIPOS>BOND
     1    18    19    1
     2    19    17    1
     3    17    11    1
     4    11    12   ar
     5    12    13   ar
     6    13    14   ar
     7    14    15   ar
     8    15    16   ar
     9    16     1    1
    10     1     2   ar
    11     2     3   ar
    12     3     4   ar
    13     4    20    1
    14    20    22    1
    15    22    29    1
    16    29    30    1
    17    30    31    1
    18    22    23    1
    19    23    24   ar
    20    24    25   ar
    21    25    26   ar
    22    26    27   ar
    23    27    28   ar
    24     4     5   ar
    25     5     6   ar
    26     6     7   ar
    27     7     8   ar
    28     8     9   ar
    29    16    11   ar
    30     9     1   ar
    31     8     3    1
    32    28    23   ar
    33    20    21    1
    34    31    32    1
    35     7    10    1
