@<TRIPOS>MOLECULE
*****
 28 31 0 0 0
SMALL
GASTEIGER

@<TRIPOS>ATOM
      1 C         137.4375  139.9100  161.1619 C.3     1  UNL1        0.1366
      2 N         137.9374  140.8282  162.2376 N.ar    1  UNL1       -0.2630
      3 C         138.0582  142.3200  162.1376 C.ar    1  UNL1        0.3331
      4 O         137.7003  143.1555  160.9444 O.2     1  UNL1       -0.2462
      5 N         138.5998  142.8295  163.4403 N.ar    1  UNL1       -0.2694
      6 C         138.8137  141.6526  164.3454 C.ar    1  UNL1        0.0986
      7 C         139.3283  141.5474  165.7504 C.ar    1  UNL1        0.0224
      8 C         139.4335  140.2054  166.4121 C.ar    1  UNL1        0.0267
      9 C         139.0242  138.9685  165.6687 C.ar    1  UNL1        0.1011
     10 N         138.5096  139.0737  164.2637 N.ar    1  UNL1       -0.2251
     11 C         138.4043  140.4157  163.6021 C.ar    1  UNL1        0.1633
     12 C         139.9482  140.1002  167.8172 C.ar    1  UNL1        0.0309
     13 C         139.1349  140.2551  169.0679 C.ar    1  UNL1        0.0070
     14 C         140.0505  140.0723  170.2419 C.ar    1  UNL1        0.0109
     15 C         141.4298  139.8043  169.7166 C.ar    1  UNL1        0.1009
     16 S         141.3665  139.8216  168.2181 S.2     1  UNL1       -0.0831
     17 C         142.6569  139.5617  170.5445 C.3     1  UNL1        0.4241
     18 F         143.8839  139.3191  171.3725 F       1  UNL1       -0.1654
     19 F         142.8140  138.2092  169.9153 F       1  UNL1       -0.1654
     20 F         142.4997  140.9142  171.1738 F       1  UNL1       -0.1654
     21 C         138.8785  144.2640  163.7786 C.3     1  UNL1        0.1956
     22 C         140.0851  144.9484  163.2078 C.2     1  UNL1        0.2490
     23 O         139.9197  146.0153  162.1664 O.2     1  UNL1       -0.2728
     24 N         141.4571  144.5659  163.6784 N.am    1  UNL1       -0.2722
     25 C         142.8522  145.0105  163.3529 C.3     1  UNL1        0.1305
     26 C         143.3973  144.0251  164.3439 C.3     1  UNL1        0.2003
     27 F         144.7692  143.6426  164.8144 F       1  UNL1       -0.2336
     28 C         142.0021  143.5806  164.6693 C.3     1  UNL1        0.1305
@<TRIPOS>BOND
     1     1     2    1
     2     2     3   ar
     3     3     4    2
     4     3     5   ar
     5     5    21    1
     6    21    22    1
     7    22    23    2
     8    22    24   am
     9    24    25    1
    10    25    26    1
    11    26    27    1
    12    26    28    1
    13     5     6   ar
    14     6     7   ar
    15     7     8   ar
    16     8    12    1
    17    12    13   ar
    18    13    14   ar
    19    14    15   ar
    20    15    17    1
    21    17    18    1
    22    17    19    1
    23    17    20    1
    24    15    16   ar
    25     8     9   ar
    26     9    10   ar
    27    10    11   ar
    28    11     2   ar
    29    28    24    1
    30    11     6   ar
    31    16    12   ar
@<TRIPOS>MOLECULE
*****
 28 31 0 0 0
SMALL
GASTEIGER

@<TRIPOS>ATOM
      1 C         142.7694  137.6937  160.7794 C.3     1  UNL1        0.1366
      2 N         141.8726  138.2664  161.8367 N.ar    1  UNL1       -0.2630
      3 C         140.4006  138.5206  161.7012 C.ar    1  UNL1        0.3331
      4 O         139.5667  138.2469  160.4848 O.2     1  UNL1       -0.2462
      5 N         139.9087  139.0968  162.9959 N.ar    1  UNL1       -0.2694
      6 C         141.0768  139.1985  163.9315 C.ar    1  UNL1        0.0986
      7 C         141.1920  139.6922  165.3432 C.ar    1  UNL1        0.0224
      8 C         142.5209  139.6727  166.0384 C.ar    1  UNL1        0.0267
      9 C         143.7347  139.1595  165.3219 C.ar    1  UNL1        0.1011
     10 N         143.6195  138.6658  163.9102 N.ar    1  UNL1       -0.2251
     11 C         142.2906  138.6853  163.2150 C.ar    1  UNL1        0.1633
     12 C         142.6362  140.1664  167.4502 C.ar    1  UNL1        0.0309
     13 C         142.5149  139.3300  168.6894 C.ar    1  UNL1        0.0070
     14 C         142.6967  140.2299  169.8756 C.ar    1  UNL1        0.0109
     15 C         142.9303  141.6225  169.3695 C.ar    1  UNL1        0.1009
     16 S         142.8929  141.5833  167.8705 S.2     1  UNL1       -0.0831
     17 C         143.1609  142.8405  170.2141 C.3     1  UNL1        0.4241
     18 F         143.3915  144.0584  171.0588 F       1  UNL1       -0.1654
     19 F         141.6791  143.0467  170.3213 F       1  UNL1       -0.1654
     20 F         144.6428  142.6343  170.1070 F       1  UNL1       -0.1654
     21 C         138.4967  139.5003  163.3014 C.3     1  UNL1        0.1956
     22 C         137.9435  140.7770  162.7409 C.2     1  UNL1        0.2490
     23 O         137.2636  140.7766  161.4038 O.2     1  UNL1       -0.2728
     24 N         138.0702  142.0540  163.5175 N.am    1  UNL1       -0.2722
     25 C         137.6564  143.4780  163.2919 C.3     1  UNL1        0.1305
     26 C         138.2494  143.8600  164.6158 C.3     1  UNL1        0.2003
     27 F         138.3761  145.1370  165.3923 F       1  UNL1       -0.2336
     28 C         138.6632  142.4360  164.8413 C.3     1  UNL1        0.1305
@<TRIPOS>BOND
     1     1     2    1
     2     2     3   ar
     3     3     4    2
     4     3     5   ar
     5     5    21    1
     6    21    22    1
     7    22    23    2
     8    22    24   am
     9    24    25    1
    10    25    26    1
    11    26    27    1
    12    26    28    1
    13     5     6   ar
    14     6     7   ar
    15     7     8   ar
    16     8    12    1
    17    12    13   ar
    18    13    14   ar
    19    14    15   ar
    20    15    17    1
    21    17    18    1
    22    17    19    1
    23    17    20    1
    24    15    16   ar
    25     8     9   ar
    26     9    10   ar
    27    10    11   ar
    28    11     2   ar
    29    28    24    1
    30    11     6   ar
    31    16    12   ar
@<TRIPOS>MOLECULE
*****
 28 31 0 0 0
SMALL
GASTEIGER

@<TRIPOS>ATOM
      1 C         143.9535  138.3790  161.7451 C.3     1  UNL1        0.1366
      2 N         143.7348  139.7468  162.3208 N.ar    1  UNL1       -0.2630
      3 C         143.8162  141.0428  161.5699 C.ar    1  UNL1        0.3331
      4 O         144.1307  141.1985  160.1115 O.2     1  UNL1       -0.2462
      5 N         143.5280  142.1556  162.5335 N.ar    1  UNL1       -0.2694
      6 C         143.2684  141.5474  163.8799 C.ar    1  UNL1        0.0986
      7 C         142.9322  142.1569  165.2086 C.ar    1  UNL1        0.0224
      8 C         142.7238  141.2776  166.4058 C.ar    1  UNL1        0.0267
      9 C         142.8516  139.7888  166.2743 C.ar    1  UNL1        0.1011
     10 N         143.1878  139.1794  164.9456 N.ar    1  UNL1       -0.2251
     11 C         143.3962  140.0587  163.7484 C.ar    1  UNL1        0.1633
     12 C         142.3875  141.8871  167.7346 C.ar    1  UNL1        0.0309
     13 C         143.3711  142.3049  168.7871 C.ar    1  UNL1        0.0070
     14 C         142.6001  142.8618  169.9471 C.ar    1  UNL1        0.0109
     15 C         141.1400  142.7880  169.6114 C.ar    1  UNL1        0.1009
     16 S         141.0086  142.1856  168.2440 S.2     1  UNL1       -0.0831
     17 C         140.0097  143.2377  170.4891 C.3     1  UNL1        0.4241
     18 F         138.8795  143.6874  171.3667 F       1  UNL1       -0.1654
     19 F         139.6240  141.8075  170.7251 F       1  UNL1       -0.1654
     20 F         140.3955  144.6679  170.2531 F       1  UNL1       -0.1654
     21 C         143.5036  143.6196  162.2079 C.3     1  UNL1        0.1956
     22 C         142.2445  144.2529  161.6943 C.2     1  UNL1        0.2490
     23 O         142.1285  144.6240  160.2455 O.2     1  UNL1       -0.2728
     24 N         141.1013  144.5150  162.6294 N.am    1  UNL1       -0.2722
     25 C         139.7317  145.1104  162.4895 C.3     1  UNL1        0.1305
     26 C         139.4846  144.8857  163.9519 C.3     1  UNL1        0.2003
     27 F         138.3415  145.1478  164.8870 F       1  UNL1       -0.2336
     28 C         140.8543  144.2904  164.0918 C.3     1  UNL1        0.1305
@<TRIPOS>BOND
     1     1     2    1
     2     2     3   ar
     3     3     4    2
     4     3     5   ar
     5     5    21    1
     6    21    22    1
     7    22    23    2
     8    22    24   am
     9    24    25    1
    10    25    26    1
    11    26    27    1
    12    26    28    1
    13     5     6   ar
    14     6     7   ar
    15     7     8   ar
    16     8    12    1
    17    12    13   ar
    18    13    14   ar
    19    14    15   ar
    20    15    17    1
    21    17    18    1
    22    17    19    1
    23    17    20    1
    24    15    16   ar
    25     8     9   ar
    26     9    10   ar
    27    10    11   ar
    28    11     2   ar
    29    28    24    1
    30    11     6   ar
    31    16    12   ar
@<TRIPOS>MOLECULE
*****
 28 31 0 0 0
SMALL
GASTEIGER

@<TRIPOS>ATOM
      1 C         144.9037  142.4512  160.6309 C.3     1  UNL1        0.1366
      2 N         144.3062  141.5855  161.7003 N.ar    1  UNL1       -0.2630
      3 C         143.9347  140.1392  161.5585 C.ar    1  UNL1        0.3331
      4 O         144.0954  139.3046  160.3226 O.2     1  UNL1       -0.2462
      5 N         143.3743  139.6740  162.8699 N.ar    1  UNL1       -0.2694
      6 C         143.3995  140.8328  163.8220 C.ar    1  UNL1        0.0986
      7 C         142.9724  140.9648  165.2538 C.ar    1  UNL1        0.0224
      8 C         143.1212  142.2783  165.9627 C.ar    1  UNL1        0.0267
      9 C         143.6972  143.4597  165.2399 C.ar    1  UNL1        0.1011
     10 N         144.1243  143.3276  163.8081 N.ar    1  UNL1       -0.2251
     11 C         143.9755  142.0142  163.0991 C.ar    1  UNL1        0.1633
     12 C         142.6941  142.4104  167.3946 C.ar    1  UNL1        0.0309
     13 C         143.5844  142.2860  168.5953 C.ar    1  UNL1        0.0070
     14 C         142.7422  142.4888  169.8199 C.ar    1  UNL1        0.0109
     15 C         141.3312  142.7385  169.3760 C.ar    1  UNL1        0.1009
     16 S         141.3015  142.6900  167.8770 S.2     1  UNL1       -0.0831
     17 C         140.1564  142.9921  170.2734 C.3     1  UNL1        0.4241
     18 F         138.9815  143.2457  171.1708 F       1  UNL1       -0.1654
     19 F         140.0009  141.5156  170.4871 F       1  UNL1       -0.1654
     20 F         140.3118  144.4686  170.0596 F       1  UNL1       -0.1654
     21 C         142.8762  138.2925  163.1754 C.3     1  UNL1        0.1956
     22 C         141.4768  137.9005  162.8036 C.2     1  UNL1        0.2490
     23 O         141.1826  137.3886  161.4247 O.2     1  UNL1       -0.2728
     24 N         140.3717  138.0203  163.8108 N.am    1  UNL1       -0.2722
     25 C         138.8989  137.7360  163.8081 C.3     1  UNL1        0.1305
     26 C         138.8088  138.1898  165.2351 C.3     1  UNL1        0.2003
     27 F         137.7038  138.3096  166.2422 F       1  UNL1       -0.2336
     28 C         140.2816  138.4740  165.2377 C.3     1  UNL1        0.1305
@<TRIPOS>BOND
     1     1     2    1
     2     2     3   ar
     3     3     4    2
     4     3     5   ar
     5     5    21    1
     6    21    22    1
     7    22    23    2
     8    22    24   am
     9    24    25    1
    10    25    26    1
    11    26    27    1
    12    26    28    1
    13     5     6   ar
    14     6     7   ar
    15     7     8   ar
    16     8    12    1
    17    12    13   ar
    18    13    14   ar
    19    14    15   ar
    20    15    17    1
    21    17    18    1
    22    17    19    1
    23    17    20    1
    24    15    16   ar
    25     8     9   ar
    26     9    10   ar
    27    10    11   ar
    28    11     2   ar
    29    28    24    1
    30    11     6   ar
    31    16    12   ar
@<TRIPOS>MOLECULE
*****
 28 31 0 0 0
SMALL
GASTEIGER

@<TRIPOS>ATOM
      1 C         142.6233  137.6398  160.9201 C.3     1  UNL1        0.1366
      2 N         141.6657  138.5020  161.6881 N.ar    1  UNL1       -0.2630
      3 C         140.2869  138.8961  161.2484 C.ar    1  UNL1        0.3331
      4 O         139.6234  138.4972  159.9636 O.2     1  UNL1       -0.2462
      5 N         139.6879  139.7591  162.3191 N.ar    1  UNL1       -0.2694
      6 C         140.6966  139.8984  163.4205 C.ar    1  UNL1        0.0986
      7 C         140.6600  140.6323  164.7282 C.ar    1  UNL1        0.0224
      8 C         141.8458  140.5892  165.6458 C.ar    1  UNL1        0.0267
      9 C         143.0681  139.8122  165.2558 C.ar    1  UNL1        0.1011
     10 N         143.1048  139.0783  163.9481 N.ar    1  UNL1       -0.2251
     11 C         141.9190  139.1214  163.0305 C.ar    1  UNL1        0.1633
     12 C         141.8092  141.3232  166.9535 C.ar    1  UNL1        0.0309
     13 C         142.9989  141.8286  167.7145 C.ar    1  UNL1        0.0070
     14 C         142.5014  142.4983  168.9611 C.ar    1  UNL1        0.0109
     15 C         141.0042  142.4067  168.9706 C.ar    1  UNL1        0.1009
     16 S         140.5764  141.6805  167.7298 S.2     1  UNL1       -0.0831
     17 C         140.0946  142.9467  170.0341 C.3     1  UNL1        0.4241
     18 F         139.1849  143.4866  171.0976 F       1  UNL1       -0.1654
     19 F         139.3258  141.6586  170.0305 F       1  UNL1       -0.1654
     20 F         140.8633  144.2347  170.0377 F       1  UNL1       -0.1654
     21 C         138.3204  140.3748  162.2930 C.3     1  UNL1        0.1956
     22 C         138.1607  141.8344  161.9855 C.2     1  UNL1        0.2490
     23 O         138.1349  142.3022  160.5606 O.2     1  UNL1       -0.2728
     24 N         138.0268  142.8260  163.1030 N.am    1  UNL1       -0.2722
     25 C         137.8564  144.3139  163.1858 C.3     1  UNL1        0.1305
     26 C         137.8374  144.2283  164.6834 C.3     1  UNL1        0.2003
     27 F         137.7035  145.2199  165.8008 F       1  UNL1       -0.2336
     28 C         138.0078  142.7403  164.6004 C.3     1  UNL1        0.1305
@<TRIPOS>BOND
     1     1     2    1
     2     2     3   ar
     3     3     4    2
     4     3     5   ar
     5     5    21    1
     6    21    22    1
     7    22    23    2
     8    22    24   am
     9    24    25    1
    10    25    26    1
    11    26    27    1
    12    26    28    1
    13     5     6   ar
    14     6     7   ar
    15     7     8   ar
    16     8    12    1
    17    12    13   ar
    18    13    14   ar
    19    14    15   ar
    20    15    17    1
    21    17    18    1
    22    17    19    1
    23    17    20    1
    24    15    16   ar
    25     8     9   ar
    26     9    10   ar
    27    10    11   ar
    28    11     2   ar
    29    28    24    1
    30    11     6   ar
    31    16    12   ar
@<TRIPOS>MOLECULE
*****
 28 31 0 0 0
SMALL
GASTEIGER

@<TRIPOS>ATOM
      1 C         137.3801  139.9618  160.4116 C.3     1  UNL1        0.1366
      2 N         138.0475  140.9477  161.3241 N.ar    1  UNL1       -0.2630
      3 C         138.4749  142.3382  160.9585 C.ar    1  UNL1        0.3331
      4 O         138.3101  142.9871  159.6162 O.2     1  UNL1       -0.2462
      5 N         139.0962  142.9659  162.1709 N.ar    1  UNL1       -0.2694
      6 C         139.0527  141.9634  163.2858 C.ar    1  UNL1        0.0986
      7 C         139.5195  142.0252  164.7099 C.ar    1  UNL1        0.0224
      8 C         139.3382  140.8396  165.6107 C.ar    1  UNL1        0.0267
      9 C         138.6901  139.5922  165.0873 C.ar    1  UNL1        0.1011
     10 N         138.2232  139.5304  163.6632 N.ar    1  UNL1       -0.2251
     11 C         138.4046  140.7160  162.7624 C.ar    1  UNL1        0.1633
     12 C         139.8051  140.9013  167.0349 C.ar    1  UNL1        0.0309
     13 C         139.3952  139.9715  168.1382 C.ar    1  UNL1        0.0070
     14 C         140.1005  140.3993  169.3910 C.ar    1  UNL1        0.0109
     15 C         140.9465  141.5935  169.0619 C.ar    1  UNL1        0.1009
     16 S         140.7638  141.9038  167.6058 S.2     1  UNL1       -0.0831
     17 C         141.8213  142.3455  170.0207 C.3     1  UNL1        0.4241
     18 F         142.6962  143.0974  170.9794 F       1  UNL1       -0.1654
     19 F         141.2175  143.6382  169.5578 F       1  UNL1       -0.1654
     20 F         142.4252  141.0527  170.4835 F       1  UNL1       -0.1654
     21 C         139.6617  144.3528  162.2539 C.3     1  UNL1        0.1956
     22 C         141.0876  144.6060  161.8627 C.2     1  UNL1        0.2490
     23 O         141.4210  144.9931  160.4524 O.2     1  UNL1       -0.2728
     24 N         142.1800  144.4721  162.8819 N.am    1  UNL1       -0.2722
     25 C         143.6706  144.6388  162.8671 C.3     1  UNL1        0.1305
     26 C         143.7248  144.2827  164.3233 C.3     1  UNL1        0.2003
     27 F         144.8172  144.1488  165.3424 F       1  UNL1       -0.2336
     28 C         142.2342  144.1160  164.3381 C.3     1  UNL1        0.1305
@<TRIPOS>BOND
     1     1     2    1
     2     2     3   ar
     3     3     4    2
     4     3     5   ar
     5     5    21    1
     6    21    22    1
     7    22    23    2
     8    22    24   am
     9    24    25    1
    10    25    26    1
    11    26    27    1
    12    26    28    1
    13     5     6   ar
    14     6     7   ar
    15     7     8   ar
    16     8    12    1
    17    12    13   ar
    18    13    14   ar
    19    14    15   ar
    20    15    17    1
    21    17    18    1
    22    17    19    1
    23    17    20    1
    24    15    16   ar
    25     8     9   ar
    26     9    10   ar
    27    10    11   ar
    28    11     2   ar
    29    28    24    1
    30    11     6   ar
    31    16    12   ar
@<TRIPOS>MOLECULE
*****
 28 31 0 0 0
SMALL
GASTEIGER

@<TRIPOS>ATOM
      1 C         137.9924  142.3159  156.9803 C.3     1  UNL1        0.1366
      2 N         138.6021  142.4989  158.3386 N.ar    1  UNL1       -0.2630
      3 C         139.4711  143.6437  158.7679 C.ar    1  UNL1        0.3331
      4 O         139.8830  144.8064  157.9144 O.2     1  UNL1       -0.2462
      5 N         139.8559  143.4215  160.2006 N.ar    1  UNL1       -0.2694
      6 C         139.2248  142.1395  160.6567 C.ar    1  UNL1        0.0986
      7 C         139.2555  141.4177  161.9712 C.ar    1  UNL1        0.0224
      8 C         138.5114  140.1257  162.1349 C.ar    1  UNL1        0.0267
      9 C         137.7364  139.5554  160.9841 C.ar    1  UNL1        0.1011
     10 N         137.7057  140.2773  159.6696 N.ar    1  UNL1       -0.2251
     11 C         138.4498  141.5693  159.5059 C.ar    1  UNL1        0.1633
     12 C         138.5421  139.4038  163.4494 C.ar    1  UNL1        0.0309
     13 C         138.9217  137.9677  163.6580 C.ar    1  UNL1        0.0070
     14 C         138.8128  137.6676  165.1237 C.ar    1  UNL1        0.0109
     15 C         138.3659  138.9183  165.8209 C.ar    1  UNL1        0.1009
     16 S         138.1986  139.9913  164.7862 S.2     1  UNL1       -0.0831
     17 C         138.1281  139.0695  167.2942 C.3     1  UNL1        0.4241
     18 F         137.8903  139.2206  168.7675 F       1  UNL1       -0.1654
     19 F         137.0851  137.9930  167.2363 F       1  UNL1       -0.1654
     20 F         139.1711  140.1459  167.3521 F       1  UNL1       -0.1654
     21 C         140.7202  144.3231  161.0313 C.3     1  UNL1        0.1956
     22 C         142.2064  144.1212  161.0586 C.2     1  UNL1        0.2490
     23 O         142.9553  143.8893  159.7798 O.2     1  UNL1       -0.2728
     24 N         142.9436  144.1513  162.3646 N.am    1  UNL1       -0.2722
     25 C         144.3773  143.9954  162.7770 C.3     1  UNL1        0.1305
     26 C         143.9861  144.1938  164.2116 C.3     1  UNL1        0.2003
     27 F         144.7232  144.2238  165.5175 F       1  UNL1       -0.2336
     28 C         142.5524  144.3496  163.7990 C.3     1  UNL1        0.1305
@<TRIPOS>BOND
     1     1     2    1
     2     2     3   ar
     3     3     4    2
     4     3     5   ar
     5     5    21    1
     6    21    22    1
     7    22    23    2
     8    22    24   am
     9    24    25    1
    10    25    26    1
    11    26    27    1
    12    26    28    1
    13     5     6   ar
    14     6     7   ar
    15     7     8   ar
    16     8    12    1
    17    12    13   ar
    18    13    14   ar
    19    14    15   ar
    20    15    17    1
    21    17    18    1
    22    17    19    1
    23    17    20    1
    24    15    16   ar
    25     8     9   ar
    26     9    10   ar
    27    10    11   ar
    28    11     2   ar
    29    28    24    1
    30    11     6   ar
    31    16    12   ar
@<TRIPOS>MOLECULE
*****
 28 31 0 0 0
SMALL
GASTEIGER

@<TRIPOS>ATOM
      1 C         144.8097  142.4645  160.5616 C.3     1  UNL1        0.1366
      2 N         144.2354  141.4591  161.5152 N.ar    1  UNL1       -0.2630
      3 C         143.8744  140.0402  161.1887 C.ar    1  UNL1        0.3331
      4 O         144.0244  139.3777  159.8513 O.2     1  UNL1       -0.2462
      5 N         143.3372  139.4003  162.4344 N.ar    1  UNL1       -0.2694
      6 C         143.3662  140.4236  163.5308 C.ar    1  UNL1        0.0986
      7 C         142.9588  140.3611  164.9730 C.ar    1  UNL1        0.0224
      8 C         143.1065  141.5711  165.8471 C.ar    1  UNL1        0.0267
      9 C         143.6616  142.8435  165.2790 C.ar    1  UNL1        0.1011
     10 N         144.0690  142.9060  163.8368 N.ar    1  UNL1       -0.2251
     11 C         143.9213  141.6960  162.9627 C.ar    1  UNL1        0.1633
     12 C         142.6991  141.5086  167.2895 C.ar    1  UNL1        0.0309
     13 C         143.2726  142.3324  168.4041 C.ar    1  UNL1        0.0070
     14 C         142.5746  141.9444  169.6738 C.ar    1  UNL1        0.0109
     15 C         141.5697  140.8807  169.3439 C.ar    1  UNL1        0.1009
     16 S         141.6467  140.6114  167.8703 S.2     1  UNL1       -0.0831
     17 C         140.6494  140.2050  170.3168 C.3     1  UNL1        0.4241
     18 F         139.7292  139.5293  171.2897 F       1  UNL1       -0.1654
     19 F         141.4986  140.6876  171.4552 F       1  UNL1       -0.1654
     20 F         139.8003  139.7224  169.1784 F       1  UNL1       -0.1654
     21 C         142.8556  137.9854  162.5615 C.3     1  UNL1        0.1956
     22 C         141.5706  137.6920  163.2776 C.2     1  UNL1        0.2490
     23 O         141.5979  137.0840  164.6486 O.2     1  UNL1       -0.2728
     24 N         140.2583  138.0065  162.6226 N.am    1  UNL1       -0.2722
     25 C         138.8170  137.8610  163.0116 C.3     1  UNL1        0.1305
     26 C         138.4024  138.4514  161.6964 C.3     1  UNL1        0.2003
     27 F         137.0902  138.7660  161.0415 F       1  UNL1       -0.2336
     28 C         139.8438  138.5970  161.3075 C.3     1  UNL1        0.1305
@<TRIPOS>BOND
     1     1     2    1
     2     2     3   ar
     3     3     4    2
     4     3     5   ar
     5     5    21    1
     6    21    22    1
     7    22    23    2
     8    22    24   am
     9    24    25    1
    10    25    26    1
    11    26    27    1
    12    26    28    1
    13     5     6   ar
    14     6     7   ar
    15     7     8   ar
    16     8    12    1
    17    12    13   ar
    18    13    14   ar
    19    14    15   ar
    20    15    17    1
    21    17    18    1
    22    17    19    1
    23    17    20    1
    24    15    16   ar
    25     8     9   ar
    26     9    10   ar
    27    10    11   ar
    28    11     2   ar
    29    28    24    1
    30    11     6   ar
    31    16    12   ar
@<TRIPOS>MOLECULE
*****
 28 31 0 0 0
SMALL
GASTEIGER

@<TRIPOS>ATOM
      1 C         137.7490  139.5131  160.6386 C.3     1  UNL1        0.1366
      2 N         138.9619  139.2779  161.4892 N.ar    1  UNL1       -0.2630
      3 C         140.2979  138.7969  161.0059 C.ar    1  UNL1        0.3331
      4 O         140.6556  138.4664  159.5871 O.2     1  UNL1       -0.2462
      5 N         141.2134  138.7042  162.1905 N.ar    1  UNL1       -0.2694
      6 C         140.4432  139.1280  163.4059 C.ar    1  UNL1        0.0986
      7 C         140.8292  139.2369  164.8512 C.ar    1  UNL1        0.0224
      8 C         139.8237  139.7003  165.8631 C.ar    1  UNL1        0.0267
      9 C         138.4321  140.0549  165.4297 C.ar    1  UNL1        0.1011
     10 N         138.0461  139.9461  163.9844 N.ar    1  UNL1       -0.2251
     11 C         139.0517  139.4826  162.9724 C.ar    1  UNL1        0.1633
     12 C         140.2097  139.8092  167.3086 C.ar    1  UNL1        0.0309
     13 C         139.2785  140.0864  168.4514 C.ar    1  UNL1        0.0070
     14 C         140.0879  140.1085  169.7140 C.ar    1  UNL1        0.0109
     15 C         141.5195  139.8450  169.3516 C.ar    1  UNL1        0.1009
     16 S         141.5947  139.6600  167.8650 S.2     1  UNL1       -0.0831
     17 C         142.6731  139.7781  170.3079 C.3     1  UNL1        0.4241
     18 F         143.8268  139.7113  171.2642 F       1  UNL1       -0.1654
     19 F         142.7551  141.2759  170.3137 F       1  UNL1       -0.1654
     20 F         142.5912  138.2804  170.3021 F       1  UNL1       -0.1654
     21 C         142.6474  138.2649  162.1643 C.3     1  UNL1        0.1956
     22 C         143.7134  139.2113  161.6970 C.2     1  UNL1        0.2490
     23 O         144.2771  139.0818  160.3130 O.2     1  UNL1       -0.2728
     24 N         144.2156  140.2870  162.6138 N.am    1  UNL1       -0.2722
     25 C         145.2360  141.3811  162.5062 C.3     1  UNL1        0.1305
     26 C         144.9259  141.8084  163.9103 C.3     1  UNL1        0.2003
     27 F         145.4281  142.8841  164.8271 F       1  UNL1       -0.2336
     28 C         143.9055  140.7142  164.0178 C.3     1  UNL1        0.1305
@<TRIPOS>BOND
     1     1     2    1
     2     2     3   ar
     3     3     4    2
     4     3     5   ar
     5     5    21    1
     6    21    22    1
     7    22    23    2
     8    22    24   am
     9    24    25    1
    10    25    26    1
    11    26    27    1
    12    26    28    1
    13     5     6   ar
    14     6     7   ar
    15     7     8   ar
    16     8    12    1
    17    12    13   ar
    18    13    14   ar
    19    14    15   ar
    20    15    17    1
    21    17    18    1
    22    17    19    1
    23    17    20    1
    24    15    16   ar
    25     8     9   ar
    26     9    10   ar
    27    10    11   ar
    28    11     2   ar
    29    28    24    1
    30    11     6   ar
    31    16    12   ar
