@<TRIPOS>MOLECULE
*****
 24 27 0 0 0
SMALL
GASTEIGER

@<TRIPOS>ATOM
      1 C         138.9764  139.8084  166.8075 C.ar    1  UNL1        0.1409
      2 N         138.8571  139.5115  168.2729 N.ar    1  UNL1       -0.2292
      3 C         139.6647  140.5313  169.0198 C.ar    1  UNL1        0.0984
      4 C         139.9169  140.7353  170.4843 C.ar    1  UNL1        0.0206
      5 C         140.7875  141.8667  170.9448 C.ar    1  UNL1        0.0016
      6 C         141.4059  142.7939  169.9409 C.ar    1  UNL1        0.0016
      7 C         141.1537  142.5898  168.4765 C.ar    1  UNL1        0.0188
      8 C         140.2832  141.4585  168.0159 C.ar    1  UNL1        0.0789
      9 N         139.8577  141.0117  166.6486 N.ar    1  UNL1       -0.3093
     10 C         138.3282  139.0374  165.6960 C.3     1  UNL1        0.1576
     11 O         137.9151  139.4112  162.4806 O.2     1  UNL1       -0.2749
     12 C         138.9818  138.5906  163.1429 C.2     1  UNL1        0.2260
     13 C         140.0460  137.7978  162.4436 C.3     1  UNL1        0.0870
     14 C         140.8936  137.1360  163.4894 C.3     1  UNL1        0.0311
     15 C         140.3532  137.5198  164.8351 C.3     1  UNL1        0.0943
     16 N         139.1717  138.4188  164.6209 N.am    1  UNL1       -0.2726
     17 C         140.2456  141.6554  165.3504 C.3     1  UNL1        0.1339
     18 C         141.6821  141.6674  164.9189 C.ar    1  UNL1        0.0005
     19 C         142.5063  142.9090  165.0904 C.ar    1  UNL1       -0.0015
     20 C         143.9429  142.9211  164.6589 C.ar    1  UNL1        0.0111
     21 C         144.5552  141.6917  164.0559 C.ar    1  UNL1        0.0577
     22 CL        145.9917  141.7038  163.6244 Cl      1  UNL1       -0.0822
     23 C         143.7310  140.4502  163.8845 C.ar    1  UNL1        0.0111
     24 C         142.2945  140.4381  164.3159 C.ar    1  UNL1       -0.0015
@<TRIPOS>BOND
     1    11    12    2
     2    12    13    1
     3    13    14    1
     4    14    15    1
     5    15    16    1
     6    16    10    1
     7    10     1    1
     8     1     2   ar
     9     2     3   ar
    10     3     4   ar
    11     4     5   ar
    12     5     6   ar
    13     6     7   ar
    14     7     8   ar
    15     8     9   ar
    16     9    17    1
    17    17    18    1
    18    18    19   ar
    19    19    20   ar
    20    20    21   ar
    21    21    22    1
    22    21    23   ar
    23    23    24   ar
    24    16    12   am
    25     9     1   ar
    26    24    18   ar
    27     8     3   ar
@<TRIPOS>MOLECULE
*****
 24 27 0 0 0
SMALL
GASTEIGER

@<TRIPOS>ATOM
      1 C         142.1400  141.8770  163.2520 C.ar    1  UNL1        0.1409
      2 N         142.3082  142.3938  161.8539 N.ar    1  UNL1       -0.2292
      3 C         141.4561  143.6195  161.7072 C.ar    1  UNL1        0.0984
      4 C         141.2231  144.5475  160.5520 C.ar    1  UNL1        0.0206
      5 C         140.2953  145.7163  160.7042 C.ar    1  UNL1        0.0016
      6 C         139.6005  145.9570  162.0116 C.ar    1  UNL1        0.0016
      7 C         139.8335  145.0290  163.1668 C.ar    1  UNL1        0.0188
      8 C         140.7613  143.8603  163.0146 C.ar    1  UNL1        0.0789
      9 N         141.1840  142.7833  163.9693 N.ar    1  UNL1       -0.3093
     10 C         142.8102  140.6664  163.8310 C.3     1  UNL1        0.1576
     11 O         142.7037  138.6371  166.3844 O.2     1  UNL1       -0.2749
     12 C         142.0286  138.4259  165.0617 C.2     1  UNL1        0.2260
     13 C         141.1861  137.2449  164.6804 C.3     1  UNL1        0.0870
     14 C         140.7143  137.4478  163.2710 C.3     1  UNL1        0.0311
     15 C         141.2653  138.7542  162.7813 C.3     1  UNL1        0.0943
     16 N         142.0776  139.3588  163.8880 N.am    1  UNL1       -0.2726
     17 C         140.7303  142.6382  165.3916 C.3     1  UNL1        0.1339
     18 C         139.9085  141.4516  165.7994 C.ar    1  UNL1        0.0005
     19 C         138.9336  140.8466  164.8330 C.ar    1  UNL1       -0.0015
     20 C         138.1117  139.6600  165.2407 C.ar    1  UNL1        0.0111
     21 C         138.2645  139.0782  166.6149 C.ar    1  UNL1        0.0577
     22 CL        137.4426  137.8916  167.0226 Cl      1  UNL1       -0.0822
     23 C         139.2393  139.6832  167.5812 C.ar    1  UNL1        0.0111
     24 C         140.0612  140.8698  167.1735 C.ar    1  UNL1       -0.0015
@<TRIPOS>BOND
     1    11    12    2
     2    12    13    1
     3    13    14    1
     4    14    15    1
     5    15    16    1
     6    16    10    1
     7    10     1    1
     8     1     2   ar
     9     2     3   ar
    10     3     4   ar
    11     4     5   ar
    12     5     6   ar
    13     6     7   ar
    14     7     8   ar
    15     8     9   ar
    16     9    17    1
    17    17    18    1
    18    18    19   ar
    19    19    20   ar
    20    20    21   ar
    21    21    22    1
    22    21    23   ar
    23    23    24   ar
    24    16    12   am
    25     9     1   ar
    26    24    18   ar
    27     8     3   ar
@<TRIPOS>MOLECULE
*****
 24 27 0 0 0
SMALL
GASTEIGER

@<TRIPOS>ATOM
      1 C         139.9186  140.7624  167.4242 C.ar    1  UNL1        0.1409
      2 N         139.1802  139.4737  167.2146 N.ar    1  UNL1       -0.2292
      3 C         139.3792  139.0519  165.7889 C.ar    1  UNL1        0.0984
      4 C         138.8873  137.8646  165.0155 C.ar    1  UNL1        0.0206
      5 C         139.2569  137.7054  163.5705 C.ar    1  UNL1        0.0016
      6 C         140.1183  138.7334  162.8990 C.ar    1  UNL1        0.0016
      7 C         140.6102  139.9208  163.6724 C.ar    1  UNL1        0.0188
      8 C         140.2406  140.0800  165.1174 C.ar    1  UNL1        0.0789
      9 N         140.5740  141.1371  166.1280 N.ar    1  UNL1       -0.3093
     10 C         139.9892  141.5399  168.7050 C.3     1  UNL1        0.1576
     11 O         140.7075  144.3176  170.2599 O.2     1  UNL1       -0.2749
     12 C         141.6523  143.1811  170.0035 C.2     1  UNL1        0.2260
     13 C         143.0930  143.1218  170.4166 C.3     1  UNL1        0.0870
     14 C         143.6533  141.8084  169.9573 C.3     1  UNL1        0.0311
     15 C         142.5588  141.0559  169.2602 C.3     1  UNL1        0.0943
     16 N         141.3221  141.9043  169.2887 N.am    1  UNL1       -0.2726
     17 C         141.4151  142.3552  165.8851 C.3     1  UNL1        0.1339
     18 C         140.9894  143.3695  164.8655 C.ar    1  UNL1        0.0005
     19 C         139.5494  143.7789  164.7706 C.ar    1  UNL1       -0.0015
     20 C         139.1236  144.7932  163.7509 C.ar    1  UNL1        0.0111
     21 C         140.1378  145.3982  162.8260 C.ar    1  UNL1        0.0577
     22 CL        139.7120  146.4126  161.8063 Cl      1  UNL1       -0.0822
     23 C         141.5777  144.9889  162.9209 C.ar    1  UNL1        0.0111
     24 C         142.0035  143.9745  163.9406 C.ar    1  UNL1       -0.0015
@<TRIPOS>BOND
     1    11    12    2
     2    12    13    1
     3    13    14    1
     4    14    15    1
     5    15    16    1
     6    16    10    1
     7    10     1    1
     8     1     2   ar
     9     2     3   ar
    10     3     4   ar
    11     4     5   ar
    12     5     6   ar
    13     6     7   ar
    14     7     8   ar
    15     8     9   ar
    16     9    17    1
    17    17    18    1
    18    18    19   ar
    19    19    20   ar
    20    20    21   ar
    21    21    22    1
    22    21    23   ar
    23    23    24   ar
    24    16    12   am
    25     9     1   ar
    26    24    18   ar
    27     8     3   ar
@<TRIPOS>MOLECULE
*****
 24 27 0 0 0
SMALL
GASTEIGER

@<TRIPOS>ATOM
      1 C         139.9900  141.9242  163.1977 C.ar    1  UNL1        0.1409
      2 N         139.7969  140.6324  162.4601 N.ar    1  UNL1       -0.2292
      3 C         139.3663  139.5924  163.4516 C.ar    1  UNL1        0.0984
      4 C         139.0313  138.1383  163.2992 C.ar    1  UNL1        0.0206
      5 C         138.6233  137.3331  164.4972 C.ar    1  UNL1        0.0016
      6 C         138.5503  137.9821  165.8475 C.ar    1  UNL1        0.0016
      7 C         138.8853  139.4362  165.9999 C.ar    1  UNL1        0.0188
      8 C         139.2933  140.2413  164.8019 C.ar    1  UNL1        0.0789
      9 N         139.6788  141.6825  164.6450 N.ar    1  UNL1       -0.3093
     10 C         140.4190  143.2286  162.5941 C.3     1  UNL1        0.1576
     11 O         143.2895  141.9141  161.7684 O.2     1  UNL1       -0.2749
     12 C         143.0911  143.1893  162.5328 C.2     1  UNL1        0.2260
     13 C         144.1772  144.0842  163.0520 C.3     1  UNL1        0.0870
     14 C         143.5290  145.2416  163.7523 C.3     1  UNL1        0.0311
     15 C         142.0422  145.0619  163.6660 C.3     1  UNL1        0.0943
     16 N         141.7716  143.7935  162.9123 N.am    1  UNL1       -0.2726
     17 C         139.7419  142.7027  165.7428 C.3     1  UNL1        0.1339
     18 C         140.8221  142.6223  166.7803 C.ar    1  UNL1        0.0005
     19 C         142.2416  142.3686  166.3670 C.ar    1  UNL1       -0.0015
     20 C         143.3220  142.2882  167.4046 C.ar    1  UNL1        0.0111
     21 C         142.9828  142.4614  168.8554 C.ar    1  UNL1        0.0577
     22 CL        144.0631  142.3809  169.8929 Cl      1  UNL1       -0.0822
     23 C         141.5633  142.7150  169.2687 C.ar    1  UNL1        0.0111
     24 C         140.4830  142.7955  168.2312 C.ar    1  UNL1       -0.0015
@<TRIPOS>BOND
     1    11    12    2
     2    12    13    1
     3    13    14    1
     4    14    15    1
     5    15    16    1
     6    16    10    1
     7    10     1    1
     8     1     2   ar
     9     2     3   ar
    10     3     4   ar
    11     4     5   ar
    12     5     6   ar
    13     6     7   ar
    14     7     8   ar
    15     8     9   ar
    16     9    17    1
    17    17    18    1
    18    18    19   ar
    19    19    20   ar
    20    20    21   ar
    21    21    22    1
    22    21    23   ar
    23    23    24   ar
    24    16    12   am
    25     9     1   ar
    26    24    18   ar
    27     8     3   ar
@<TRIPOS>MOLECULE
*****
 24 27 0 0 0
SMALL
GASTEIGER

@<TRIPOS>ATOM
      1 C         140.7778  140.3086  165.7966 C.ar    1  UNL1        0.1409
      2 N         139.9492  139.6277  166.8454 N.ar    1  UNL1       -0.2292
      3 C         139.8802  140.5314  168.0406 C.ar    1  UNL1        0.0984
      4 C         139.2032  140.3859  169.3712 C.ar    1  UNL1        0.0206
      5 C         139.3122  141.4797  170.3917 C.ar    1  UNL1        0.0016
      6 C         140.0982  142.7191  170.0817 C.ar    1  UNL1        0.0016
      7 C         140.7751  142.8647  168.7511 C.ar    1  UNL1        0.0188
      8 C         140.6661  141.7709  167.7306 C.ar    1  UNL1        0.0789
      9 N         141.2209  141.6331  166.3437 N.ar    1  UNL1       -0.3093
     10 C         141.1057  139.7611  164.4392 C.3     1  UNL1        0.1576
     11 O         140.9333  136.9292  162.8267 O.2     1  UNL1       -0.2749
     12 C         139.9236  138.0372  162.7731 C.2     1  UNL1        0.2260
     13 C         138.6574  138.0380  161.9689 C.3     1  UNL1        0.0870
     14 C         137.9541  139.3402  162.2130 C.3     1  UNL1        0.0311
     15 C         138.7856  140.1442  163.1682 C.3     1  UNL1        0.0943
     16 N         140.0029  139.3389  163.5143 N.am    1  UNL1       -0.2726
     17 C         142.0697  142.6427  165.6294 C.3     1  UNL1        0.1339
     18 C         141.4454  143.5832  164.6417 C.ar    1  UNL1        0.0005
     19 C         142.2727  144.1655  163.5342 C.ar    1  UNL1       -0.0015
     20 C         141.6485  145.1060  162.5464 C.ar    1  UNL1        0.0111
     21 C         140.1968  145.4642  162.6662 C.ar    1  UNL1        0.0577
     22 CL        139.5725  146.4047  161.6784 Cl      1  UNL1       -0.0822
     23 C         139.3695  144.8820  163.7736 C.ar    1  UNL1        0.0111
     24 C         139.9937  143.9415  164.7614 C.ar    1  UNL1       -0.0015
@<TRIPOS>BOND
     1    11    12    2
     2    12    13    1
     3    13    14    1
     4    14    15    1
     5    15    16    1
     6    16    10    1
     7    10     1    1
     8     1     2   ar
     9     2     3   ar
    10     3     4   ar
    11     4     5   ar
    12     5     6   ar
    13     6     7   ar
    14     7     8   ar
    15     8     9   ar
    16     9    17    1
    17    17    18    1
    18    18    19   ar
    19    19    20   ar
    20    20    21   ar
    21    21    22    1
    22    21    23   ar
    23    23    24   ar
    24    16    12   am
    25     9     1   ar
    26    24    18   ar
    27     8     3   ar
@<TRIPOS>MOLECULE
*****
 24 27 0 0 0
SMALL
GASTEIGER

@<TRIPOS>ATOM
      1 C         139.3911  139.6051  166.7168 C.ar    1  UNL1        0.1409
      2 N         138.9562  139.6698  168.1509 N.ar    1  UNL1       -0.2292
      3 C         140.1517  140.0303  168.9821 C.ar    1  UNL1        0.0984
      4 C         140.3231  140.2351  170.4581 C.ar    1  UNL1        0.0206
      5 C         141.6683  140.5979  171.0137 C.ar    1  UNL1        0.0016
      6 C         142.8421  140.7559  170.0932 C.ar    1  UNL1        0.0016
      7 C         142.6707  140.5511  168.6172 C.ar    1  UNL1        0.0188
      8 C         141.3255  140.1883  168.0616 C.ar    1  UNL1        0.0789
      9 N         140.8554  139.9255  166.6616 N.ar    1  UNL1       -0.3093
     10 C         138.5155  139.2774  165.5438 C.3     1  UNL1        0.1576
     11 O         137.9787  138.7853  162.3628 O.2     1  UNL1       -0.2749
     12 C         137.9460  140.1087  163.0680 C.2     1  UNL1        0.2260
     13 C         137.6608  141.4383  162.4348 C.3     1  UNL1        0.0870
     14 C         137.7313  142.4864  163.5058 C.3     1  UNL1        0.0311
     15 C         138.0600  141.8044  164.8008 C.3     1  UNL1        0.0943
     16 N         138.1927  140.3349  164.5302 N.am    1  UNL1       -0.2726
     17 C         141.7012  139.9745  165.4238 C.3     1  UNL1        0.1339
     18 C         142.2298  141.2878  164.9281 C.ar    1  UNL1        0.0005
     19 C         141.4564  142.0712  163.9091 C.ar    1  UNL1       -0.0015
     20 C         141.9849  143.3845  163.4134 C.ar    1  UNL1        0.0111
     21 C         143.2870  143.9145  163.9366 C.ar    1  UNL1        0.0577
     22 CL        143.8155  145.2279  163.4408 Cl      1  UNL1       -0.0822
     23 C         144.0604  143.1312  164.9555 C.ar    1  UNL1        0.0111
     24 C         143.5319  141.8179  165.4513 C.ar    1  UNL1       -0.0015
@<TRIPOS>BOND
     1    11    12    2
     2    12    13    1
     3    13    14    1
     4    14    15    1
     5    15    16    1
     6    16    10    1
     7    10     1    1
     8     1     2   ar
     9     2     3   ar
    10     3     4   ar
    11     4     5   ar
    12     5     6   ar
    13     6     7   ar
    14     7     8   ar
    15     8     9   ar
    16     9    17    1
    17    17    18    1
    18    18    19   ar
    19    19    20   ar
    20    20    21   ar
    21    21    22    1
    22    21    23   ar
    23    23    24   ar
    24    16    12   am
    25     9     1   ar
    26    24    18   ar
    27     8     3   ar
@<TRIPOS>MOLECULE
*****
 24 27 0 0 0
SMALL
GASTEIGER

@<TRIPOS>ATOM
      1 C         141.2831  141.1957  163.3857 C.ar    1  UNL1        0.1409
      2 N         142.6767  140.9674  162.8800 N.ar    1  UNL1       -0.2292
      3 C         143.3852  140.0786  163.8588 C.ar    1  UNL1        0.0984
      4 C         144.7772  139.5201  163.8822 C.ar    1  UNL1        0.0206
      5 C         145.2133  138.6406  165.0162 C.ar    1  UNL1        0.0016
      6 C         144.2576  138.3195  166.1268 C.ar    1  UNL1        0.0016
      7 C         142.8657  138.8779  166.1034 C.ar    1  UNL1        0.0188
      8 C         142.4295  139.7575  164.9694 C.ar    1  UNL1        0.0789
      9 N         141.1303  140.4479  164.6770 N.ar    1  UNL1       -0.3093
     10 C         140.2276  142.0259  162.7174 C.3     1  UNL1        0.1576
     11 O         136.9933  141.9557  163.1460 O.2     1  UNL1       -0.2749
     12 C         137.9364  142.9724  163.7175 C.2     1  UNL1        0.2260
     13 C         137.5586  144.1353  164.5863 C.3     1  UNL1        0.0870
     14 C         138.8118  144.8864  164.9262 C.3     1  UNL1        0.0311
     15 C         139.9642  144.1876  164.2675 C.3     1  UNL1        0.0943
     16 N         139.4232  143.0047  163.5205 N.am    1  UNL1       -0.2726
     17 C         139.8952  140.3990  165.5267 C.3     1  UNL1        0.1339
     18 C         139.9267  140.9346  166.9274 C.ar    1  UNL1        0.0005
     19 C         140.4851  142.3008  167.1956 C.ar    1  UNL1       -0.0015
     20 C         140.5167  142.8365  168.5963 C.ar    1  UNL1        0.0111
     21 C         139.9900  142.0060  169.7289 C.ar    1  UNL1        0.0577
     22 CL        140.0216  142.5417  171.1296 Cl      1  UNL1       -0.0822
     23 C         139.4316  140.6399  169.4608 C.ar    1  UNL1        0.0111
     24 C         139.4000  140.1042  168.0601 C.ar    1  UNL1       -0.0015
@<TRIPOS>BOND
     1    11    12    2
     2    12    13    1
     3    13    14    1
     4    14    15    1
     5    15    16    1
     6    16    10    1
     7    10     1    1
     8     1     2   ar
     9     2     3   ar
    10     3     4   ar
    11     4     5   ar
    12     5     6   ar
    13     6     7   ar
    14     7     8   ar
    15     8     9   ar
    16     9    17    1
    17    17    18    1
    18    18    19   ar
    19    19    20   ar
    20    20    21   ar
    21    21    22    1
    22    21    23   ar
    23    23    24   ar
    24    16    12   am
    25     9     1   ar
    26    24    18   ar
    27     8     3   ar
@<TRIPOS>MOLECULE
*****
 24 27 0 0 0
SMALL
GASTEIGER

@<TRIPOS>ATOM
      1 C         141.5407  139.6931  166.5732 C.ar    1  UNL1        0.1409
      2 N         142.6434  139.7444  167.5888 N.ar    1  UNL1       -0.2292
      3 C         142.4043  140.9322  168.4731 C.ar    1  UNL1        0.0984
      4 C         143.1636  141.4802  169.6449 C.ar    1  UNL1        0.0206
      5 C         142.6725  142.7110  170.3475 C.ar    1  UNL1        0.0016
      6 C         141.4219  143.3938  169.8785 C.ar    1  UNL1        0.0016
      7 C         140.6626  142.8457  168.7068 C.ar    1  UNL1        0.0188
      8 C         141.1537  141.6149  168.0041 C.ar    1  UNL1        0.0789
      9 N         140.6200  140.8491  166.8299 N.ar    1  UNL1       -0.3093
     10 C         141.3858  138.6660  165.4910 C.3     1  UNL1        0.1576
     11 O         140.9447  137.0385  162.6971 O.2     1  UNL1       -0.2749
     12 C         142.1066  137.9286  163.0249 C.2     1  UNL1        0.2260
     13 C         143.2698  138.2270  162.1260 C.3     1  UNL1        0.0870
     14 C         144.1915  139.1595  162.8546 C.3     1  UNL1        0.0311
     15 C         143.5979  139.4375  164.2039 C.3     1  UNL1        0.0943
     16 N         142.3094  138.6767  164.3091 N.am    1  UNL1       -0.2726
     17 C         139.3828  141.1811  166.0495 C.3     1  UNL1        0.1339
     18 C         139.3802  142.3498  165.1093 C.ar    1  UNL1        0.0005
     19 C         140.6687  143.0327  164.7579 C.ar    1  UNL1       -0.0015
     20 C         140.6662  144.2014  163.8177 C.ar    1  UNL1        0.0111
     21 C         139.3750  144.6874  163.2289 C.ar    1  UNL1        0.0577
     22 CL        139.3724  145.8561  162.2887 Cl      1  UNL1       -0.0822
     23 C         138.0865  144.0046  163.5802 C.ar    1  UNL1        0.0111
     24 C         138.0890  142.8358  164.5204 C.ar    1  UNL1       -0.0015
@<TRIPOS>BOND
     1    11    12    2
     2    12    13    1
     3    13    14    1
     4    14    15    1
     5    15    16    1
     6    16    10    1
     7    10     1    1
     8     1     2   ar
     9     2     3   ar
    10     3     4   ar
    11     4     5   ar
    12     5     6   ar
    13     6     7   ar
    14     7     8   ar
    15     8     9   ar
    16     9    17    1
    17    17    18    1
    18    18    19   ar
    19    19    20   ar
    20    20    21   ar
    21    21    22    1
    22    21    23   ar
    23    23    24   ar
    24    16    12   am
    25     9     1   ar
    26    24    18   ar
    27     8     3   ar
@<TRIPOS>MOLECULE
*****
 24 27 0 0 0
SMALL
GASTEIGER

@<TRIPOS>ATOM
      1 C         142.2253  139.6037  167.4451 C.ar    1  UNL1        0.1409
      2 N         143.5990  139.3119  166.9179 N.ar    1  UNL1       -0.2292
      3 C         143.5199  139.2612  165.4209 C.ar    1  UNL1        0.0984
      4 C         144.5594  139.0115  164.3687 C.ar    1  UNL1        0.0206
      5 C         144.1763  139.0222  162.9185 C.ar    1  UNL1        0.0016
      6 C         142.7537  139.2826  162.5205 C.ar    1  UNL1        0.0016
      7 C         141.7142  139.5322  163.5726 C.ar    1  UNL1        0.0188
      8 C         142.0973  139.5215  165.0228 C.ar    1  UNL1        0.0789
      9 N         141.2972  139.7332  166.2739 N.ar    1  UNL1       -0.3093
     10 C         141.8464  139.7416  168.8899 C.3     1  UNL1        0.1576
     11 O         139.2477  139.9079  170.8568 O.2     1  UNL1       -0.2749
     12 C         139.9928  141.0749  170.2798 C.2     1  UNL1        0.2260
     13 C         139.6742  142.5232  170.5056 C.3     1  UNL1        0.0870
     14 C         140.6718  143.3419  169.7410 C.3     1  UNL1        0.0311
     15 C         141.6070  142.3995  169.0427 C.3     1  UNL1        0.0943
     16 N         141.1873  140.9984  169.3757 N.am    1  UNL1       -0.2726
     17 C         139.8271  140.0234  166.3418 C.3     1  UNL1        0.1339
     18 C         139.2482  141.1540  165.5440 C.ar    1  UNL1        0.0005
     19 C         139.7452  142.5533  165.7561 C.ar    1  UNL1       -0.0015
     20 C         139.1663  143.6840  164.9583 C.ar    1  UNL1        0.0111
     21 C         138.0903  143.4153  163.9483 C.ar    1  UNL1        0.0577
     22 CL        137.5114  144.5459  163.1505 Cl      1  UNL1       -0.0822
     23 C         137.5933  142.0161  163.7361 C.ar    1  UNL1        0.0111
     24 C         138.1722  140.8854  164.5339 C.ar    1  UNL1       -0.0015
@<TRIPOS>BOND
     1    11    12    2
     2    12    13    1
     3    13    14    1
     4    14    15    1
     5    15    16    1
     6    16    10    1
     7    10     1    1
     8     1     2   ar
     9     2     3   ar
    10     3     4   ar
    11     4     5   ar
    12     5     6   ar
    13     6     7   ar
    14     7     8   ar
    15     8     9   ar
    16     9    17    1
    17    17    18    1
    18    18    19   ar
    19    19    20   ar
    20    20    21   ar
    21    21    22    1
    22    21    23   ar
    23    23    24   ar
    24    16    12   am
    25     9     1   ar
    26    24    18   ar
    27     8     3   ar
