@<TRIPOS>MOLECULE
*****
 43 47 0 0 0
SMALL
GASTEIGER

@<TRIPOS>ATOM
      1 C         142.3205  138.1714  163.4257 C.ar    1  UNL1        0.1518
      2 C         141.9232  138.3620  164.8595 C.ar    1  UNL1        0.0362
      3 C         142.8298  139.1032  165.7968 C.ar    1  UNL1        0.0072
      4 C         144.1338  139.6538  165.3004 C.ar    1  UNL1       -0.0005
      5 C         144.5311  139.4633  163.8666 C.ar    1  UNL1        0.0175
      6 C         143.6245  138.7221  162.9292 C.ar    1  UNL1        0.0849
      7 C         142.4325  139.2937  167.2306 C.3     1  UNL1        0.1342
      8 O         143.5189  138.2725  167.3949 O.3     1  UNL1       -0.3802
      9 C         141.4841  140.2487  166.5685 C.3     1  UNL1        0.0509
     10 C         140.5156  141.0396  167.3970 C.3     1  UNL1        0.0754
     11 N         140.4956  140.8755  168.8879 N.3     1  UNL1       -0.2628
     12 C         141.4440  139.9205  169.5501 C.3     1  UNL1        0.1048
     13 C         142.4125  139.1296  168.7215 C.3     1  UNL1        0.1546
     14 O         143.3608  138.1747  169.3838 O.3     1  UNL1       -0.3803
     15 H         143.8823  138.0442  166.5250 H       1  UNL1        0.2108
     16 H         143.2173  138.1895  170.3430 H       1  UNL1        0.2105
     17 C         139.5271  141.6664  169.7165 C.3     1  UNL1        0.1582
     18 C         140.0332  142.6942  170.6846 C.2     1  UNL1        0.2358
     19 N         140.0796  144.1400  170.2875 N.am    1  UNL1       -0.3277
     20 O         140.4931  142.2764  172.0499 O.2     1  UNL1       -0.2738
     21 H         139.7778  144.4143  169.3915 H       1  UNL1        0.1450
     22 H         140.4118  144.8146  170.9230 H       1  UNL1        0.1450
     23 C         139.9356  137.6825  162.5184 C.3     1  UNL1        0.2525
     24 O         141.4139  137.4302  162.4883 O.3     1  UNL1       -0.4702
     25 N         144.0219  138.5315  161.4954 N.pl3   1  UNL1       -0.2790
     26 H         144.4909  137.7111  161.2195 H       1  UNL1        0.1552
     27 C         143.7046  139.5910  160.4820 C.ar    1  UNL1        0.2383
     28 N         144.1579  139.4298  159.0613 N.ar    1  UNL1       -0.2093
     29 C         143.8406  140.4892  158.0481 C.ar    1  UNL1        0.1209
     30 C         143.0700  141.7100  158.4554 C.ar    1  UNL1        0.1021
     31 C         142.6127  142.9122  157.6836 C.ar    1  UNL1        0.0223
     32 C         141.8768  143.8164  158.6274 C.ar    1  UNL1        0.0208
     33 C         141.8792  143.1731  159.9824 C.ar    1  UNL1        0.0859
     34 N         142.6166  141.8712  159.8761 N.ar    1  UNL1       -0.2255
     35 N         142.9339  140.8117  160.8894 N.ar    1  UNL1       -0.1295
     36 C         141.2539  143.7332  161.2255 C.ar    1  UNL1        0.0517
     37 C         139.7751  143.6081  161.4430 C.ar    1  UNL1        0.0045
     38 C         139.1498  144.1682  162.6861 C.ar    1  UNL1        0.0002
     39 C         140.0033  144.8535  163.7117 C.ar    1  UNL1        0.0031
     40 C         141.4822  144.9786  163.4942 C.ar    1  UNL1        0.0369
     41 C         142.1074  144.4184  162.2511 C.ar    1  UNL1        0.1401
     42 O         143.5863  144.5436  162.0336 O.3     1  UNL1       -0.4714
     43 C         144.5213  143.5401  162.6409 C.3     1  UNL1        0.2525
@<TRIPOS>BOND
     1    23    24    1
     2    24     1    1
     3     1     2   ar
     4     2     3   ar
     5     3     7    1
     6     7     8    1
     7     7     9    1
     8     9    10    1
     9    10    11    1
    10    11    17    1
    11    17    18    1
    12    18    19   am
    13    18    20    2
    14    11    12    1
    15    12    13    1
    16    13    14    1
    17     3     4   ar
    18     4     5   ar
    19     5     6   ar
    20     6    25    1
    21    25    27    1
    22    27    28   ar
    23    28    29   ar
    24    29    30   ar
    25    30    31   ar
    26    31    32   ar
    27    32    33   ar
    28    33    36    1
    29    36    37   ar
    30    37    38   ar
    31    38    39   ar
    32    39    40   ar
    33    40    41   ar
    34    41    42    1
    35    42    43    1
    36    33    34   ar
    37    34    35   ar
    38     6     1   ar
    39    35    27   ar
    40    13     7    1
    41    34    30   ar
    42    41    36   ar
    43     8    15    1
    44    19    21    1
    45    19    22    1
    46    14    16    1
    47    25    26    1
@<TRIPOS>MOLECULE
*****
 43 47 0 0 0
SMALL
GASTEIGER

@<TRIPOS>ATOM
      1 C         139.9740  138.3521  163.8176 C.ar    1  UNL1        0.1518
      2 C         140.3086  138.6031  165.2581 C.ar    1  UNL1        0.0362
      3 C         139.4800  139.5582  166.0651 C.ar    1  UNL1        0.0072
      4 C         138.3169  140.2622  165.4317 C.ar    1  UNL1       -0.0005
      5 C         137.9822  140.0112  163.9912 C.ar    1  UNL1        0.0175
      6 C         138.8108  139.0561  163.1841 C.ar    1  UNL1        0.0849
      7 C         139.8147  139.8092  167.5056 C.3     1  UNL1        0.1342
      8 O         138.3836  139.3805  167.6415 O.3     1  UNL1       -0.3802
      9 C         141.1295  140.1508  166.8695 C.3     1  UNL1        0.0509
     10 C         142.2819  140.5944  167.7209 C.3     1  UNL1        0.0754
     11 N         142.1196  140.6966  169.2087 N.3     1  UNL1       -0.2628
     12 C         140.8048  140.3551  169.8448 C.3     1  UNL1        0.1048
     13 C         139.6523  139.9114  168.9933 C.3     1  UNL1        0.1546
     14 O         138.3376  139.5699  169.6295 O.3     1  UNL1       -0.3803
     15 H         138.0218  139.1788  166.7644 H       1  UNL1        0.2108
     16 H         138.4027  139.6884  170.5900 H       1  UNL1        0.2105
     17 C         143.2720  141.1403  170.0601 C.3     1  UNL1        0.1582
     18 C         143.5342  142.6029  170.2642 C.2     1  UNL1        0.2358
     19 N         144.9422  143.1201  170.2612 N.am    1  UNL1       -0.3277
     20 O         142.3883  143.5486  170.4714 O.2     1  UNL1       -0.2738
     21 H         145.6943  142.4996  170.1253 H       1  UNL1        0.1450
     22 H         145.1143  144.0802  170.3952 H       1  UNL1        0.1450
     23 C         142.0679  137.8687  162.3576 C.3     1  UNL1        0.2525
     24 O         140.8026  137.3970  163.0106 O.3     1  UNL1       -0.4702
     25 N         138.4761  138.8051  161.7437 N.pl3   1  UNL1       -0.2790
     26 H         138.1657  137.9155  161.4583 H       1  UNL1        0.1552
     27 C         138.6146  139.9095  160.7380 C.ar    1  UNL1        0.2383
     28 N         137.9555  139.7888  159.3960 N.ar    1  UNL1       -0.2093
     29 C         138.0940  140.8931  158.3905 C.ar    1  UNL1        0.1209
     30 C         138.8915  142.1182  158.7269 C.ar    1  UNL1        0.1021
     31 C         139.2017  143.3600  157.9447 C.ar    1  UNL1        0.0223
     32 C         140.0526  144.2481  158.8033 C.ar    1  UNL1        0.0208
     33 C         140.2681  143.5553  160.1162 C.ar    1  UNL1        0.0859
     34 N         139.5506  142.2389  160.0689 N.ar    1  UNL1       -0.2255
     35 N         139.4121  141.1346  161.0745 N.ar    1  UNL1       -0.1295
     36 C         141.0619  144.0856  161.2731 C.ar    1  UNL1        0.0517
     37 C         142.5282  143.7866  161.3766 C.ar    1  UNL1        0.0045
     38 C         143.3220  144.3170  162.5335 C.ar    1  UNL1        0.0002
     39 C         142.6496  145.1464  163.5871 C.ar    1  UNL1        0.0031
     40 C         141.1834  145.4454  163.4836 C.ar    1  UNL1        0.0369
     41 C         140.3896  144.9150  162.3267 C.ar    1  UNL1        0.1401
     42 O         138.9233  145.2141  162.2233 O.3     1  UNL1       -0.4714
     43 C         137.9309  144.3662  162.9623 C.3     1  UNL1        0.2525
@<TRIPOS>BOND
     1    23    24    1
     2    24     1    1
     3     1     2   ar
     4     2     3   ar
     5     3     7    1
     6     7     8    1
     7     7     9    1
     8     9    10    1
     9    10    11    1
    10    11    17    1
    11    17    18    1
    12    18    19   am
    13    18    20    2
    14    11    12    1
    15    12    13    1
    16    13    14    1
    17     3     4   ar
    18     4     5   ar
    19     5     6   ar
    20     6    25    1
    21    25    27    1
    22    27    28   ar
    23    28    29   ar
    24    29    30   ar
    25    30    31   ar
    26    31    32   ar
    27    32    33   ar
    28    33    36    1
    29    36    37   ar
    30    37    38   ar
    31    38    39   ar
    32    39    40   ar
    33    40    41   ar
    34    41    42    1
    35    42    43    1
    36    33    34   ar
    37    34    35   ar
    38     6     1   ar
    39    35    27   ar
    40    13     7    1
    41    34    30   ar
    42    41    36   ar
    43     8    15    1
    44    19    21    1
    45    19    22    1
    46    14    16    1
    47    25    26    1
@<TRIPOS>MOLECULE
*****
 43 47 0 0 0
SMALL
GASTEIGER

@<TRIPOS>ATOM
      1 C         138.2646  139.7973  162.8324 C.ar    1  UNL1        0.1518
      2 C         138.2945  140.1278  164.2952 C.ar    1  UNL1        0.0362
      3 C         138.9959  139.2144  165.2563 C.ar    1  UNL1        0.0072
      4 C         139.6674  137.9705  164.7546 C.ar    1  UNL1       -0.0005
      5 C         139.6376  137.6399  163.2918 C.ar    1  UNL1        0.0175
      6 C         138.9362  138.5533  162.3307 C.ar    1  UNL1        0.0849
      7 C         139.0257  139.5449  166.7191 C.3     1  UNL1        0.1342
      8 O         137.8227  138.6498  166.6788 O.3     1  UNL1       -0.3802
      9 C         140.2184  140.3252  166.2515 C.3     1  UNL1        0.0509
     10 C         141.0231  141.1252  167.2325 C.3     1  UNL1        0.0754
     11 N         140.6351  141.1448  168.6814 N.3     1  UNL1       -0.2628
     12 C         139.4425  140.3645  169.1491 C.3     1  UNL1        0.1048
     13 C         138.6378  139.5645  168.1680 C.3     1  UNL1        0.1546
     14 O         137.4452  138.7842  168.6358 O.3     1  UNL1       -0.3803
     15 H         137.6742  138.3484  165.7689 H       1  UNL1        0.2108
     16 H         137.3349  138.9045  169.5919 H       1  UNL1        0.2105
     17 C         141.4398  141.9448  169.6624 C.3     1  UNL1        0.1582
     18 C         141.4822  141.5384  171.1056 C.2     1  UNL1        0.2358
     19 N         142.4554  140.4921  171.5620 N.am    1  UNL1       -0.3277
     20 O         140.5514  142.1782  172.0927 O.2     1  UNL1       -0.2738
     21 H         143.0664  140.0721  170.9143 H       1  UNL1        0.1450
     22 H         142.4832  140.2254  172.5093 H       1  UNL1        0.1450
     23 C         138.2296  141.9751  161.4161 C.3     1  UNL1        0.2525
     24 O         137.5632  140.7107  161.8713 O.3     1  UNL1       -0.4702
     25 N         138.9063  138.2228  160.8679 N.pl3   1  UNL1       -0.2790
     26 H         138.1995  137.6387  160.5095 H       1  UNL1        0.1552
     27 C         139.9535  138.7823  159.9510 C.ar    1  UNL1        0.2383
     28 N         139.8328  138.5893  158.4684 N.ar    1  UNL1       -0.2093
     29 C         140.8799  139.1488  157.5516 C.ar    1  UNL1        0.1209
     30 C         142.0477  139.9012  158.1174 C.ar    1  UNL1        0.1021
     31 C         143.2266  140.5619  157.4665 C.ar    1  UNL1        0.0223
     32 C         144.0759  141.1632  158.5468 C.ar    1  UNL1        0.0208
     33 C         143.4218  140.8741  159.8654 C.ar    1  UNL1        0.0859
     34 N         142.1684  140.0941  159.6000 N.ar    1  UNL1       -0.2255
     35 N         141.1213  139.5347  160.5168 N.ar    1  UNL1       -0.1295
     36 C         143.9317  141.2916  161.2129 C.ar    1  UNL1        0.0517
     37 C         144.5251  140.2719  162.1392 C.ar    1  UNL1        0.0045
     38 C         145.0350  140.6895  163.4867 C.ar    1  UNL1        0.0002
     39 C         144.9516  142.1267  163.9078 C.ar    1  UNL1        0.0031
     40 C         144.3583  143.1464  162.9815 C.ar    1  UNL1        0.0369
     41 C         143.8484  142.7289  161.6340 C.ar    1  UNL1        0.1401
     42 O         143.2550  143.7486  160.7077 O.3     1  UNL1       -0.4714
     43 C         141.7913  144.0679  160.7821 C.3     1  UNL1        0.2525
@<TRIPOS>BOND
     1    23    24    1
     2    24     1    1
     3     1     2   ar
     4     2     3   ar
     5     3     7    1
     6     7     8    1
     7     7     9    1
     8     9    10    1
     9    10    11    1
    10    11    17    1
    11    17    18    1
    12    18    19   am
    13    18    20    2
    14    11    12    1
    15    12    13    1
    16    13    14    1
    17     3     4   ar
    18     4     5   ar
    19     5     6   ar
    20     6    25    1
    21    25    27    1
    22    27    28   ar
    23    28    29   ar
    24    29    30   ar
    25    30    31   ar
    26    31    32   ar
    27    32    33   ar
    28    33    36    1
    29    36    37   ar
    30    37    38   ar
    31    38    39   ar
    32    39    40   ar
    33    40    41   ar
    34    41    42    1
    35    42    43    1
    36    33    34   ar
    37    34    35   ar
    38     6     1   ar
    39    35    27   ar
    40    13     7    1
    41    34    30   ar
    42    41    36   ar
    43     8    15    1
    44    19    21    1
    45    19    22    1
    46    14    16    1
    47    25    26    1
@<TRIPOS>MOLECULE
*****
 43 47 0 0 0
SMALL
GASTEIGER

@<TRIPOS>ATOM
      1 C         137.9065  140.4732  162.8120 C.ar    1  UNL1        0.1518
      2 C         138.0750  140.6487  164.2921 C.ar    1  UNL1        0.0362
      3 C         138.6723  139.5459  165.1149 C.ar    1  UNL1        0.0072
      4 C         139.1012  138.2677  164.4576 C.ar    1  UNL1       -0.0005
      5 C         138.9328  138.0922  162.9774 C.ar    1  UNL1        0.0175
      6 C         138.3354  139.1950  162.1546 C.ar    1  UNL1        0.0849
      7 C         138.8408  139.7213  166.5950 C.3     1  UNL1        0.1342
      8 O         137.6507  138.8084  166.5747 O.3     1  UNL1       -0.3802
      9 C         139.9723  140.5733  166.1013 C.3     1  UNL1        0.0509
     10 C         140.8591  141.2836  167.0806 C.3     1  UNL1        0.0754
     11 N         140.6142  141.1421  168.5538 N.3     1  UNL1       -0.2628
     12 C         139.4827  140.2901  169.0474 C.3     1  UNL1        0.1048
     13 C         138.5959  139.5797  168.0681 C.3     1  UNL1        0.1546
     14 O         137.4644  138.7278  168.5619 O.3     1  UNL1       -0.3803
     15 H         137.4178  138.6012  165.6562 H       1  UNL1        0.2108
     16 H         137.4465  138.7444  169.5316 H       1  UNL1        0.2105
     17 C         141.5009  141.8524  169.5331 C.3     1  UNL1        0.1582
     18 C         141.5007  141.4458  170.9768 C.2     1  UNL1        0.2358
     19 N         142.4323  140.3712  171.4536 N.am    1  UNL1       -0.3277
     20 O         140.5688  142.1139  171.9441 O.2     1  UNL1       -0.2738
     21 H         143.0439  139.9327  170.8189 H       1  UNL1        0.1450
     22 H         142.4321  140.1043  172.4013 H       1  UNL1        0.1450
     23 C         138.1541  142.7435  161.5732 C.3     1  UNL1        0.2525
     24 O         137.3091  141.5760  161.9892 O.3     1  UNL1       -0.4702
     25 N         138.1670  139.0195  160.6744 N.pl3   1  UNL1       -0.2790
     26 H         137.3249  138.6583  160.3142 H       1  UNL1        0.1552
     27 C         139.2815  139.3944  159.7431 C.ar    1  UNL1        0.2383
     28 N         139.1319  139.1732  158.2671 N.ar    1  UNL1       -0.2093
     29 C         140.2464  139.5480  157.3358 C.ar    1  UNL1        0.1209
     30 C         141.5105  140.1441  157.8805 C.ar    1  UNL1        0.1021
     31 C         142.7704  140.6089  157.2120 C.ar    1  UNL1        0.0223
     32 C         143.6986  141.1173  158.2750 C.ar    1  UNL1        0.0208
     33 C         143.0124  140.9668  159.6003 C.ar    1  UNL1        0.0859
     34 N         141.6601  140.3653  159.3565 N.ar    1  UNL1       -0.2255
     35 N         140.5456  139.9905  160.2878 N.ar    1  UNL1       -0.1295
     36 C         143.5791  141.3504  160.9351 C.ar    1  UNL1        0.0517
     37 C         143.5851  142.7883  161.3622 C.ar    1  UNL1        0.0045
     38 C         144.1517  143.1719  162.6970 C.ar    1  UNL1        0.0002
     39 C         144.7123  142.1177  163.6048 C.ar    1  UNL1        0.0031
     40 C         144.7063  140.6797  163.1778 C.ar    1  UNL1        0.0369
     41 C         144.1397  140.2961  161.8430 C.ar    1  UNL1        0.1401
     42 O         144.1336  138.8582  161.4160 O.3     1  UNL1       -0.4714
     43 C         143.0697  137.9299  161.9222 C.3     1  UNL1        0.2525
@<TRIPOS>BOND
     1    23    24    1
     2    24     1    1
     3     1     2   ar
     4     2     3   ar
     5     3     7    1
     6     7     8    1
     7     7     9    1
     8     9    10    1
     9    10    11    1
    10    11    17    1
    11    17    18    1
    12    18    19   am
    13    18    20    2
    14    11    12    1
    15    12    13    1
    16    13    14    1
    17     3     4   ar
    18     4     5   ar
    19     5     6   ar
    20     6    25    1
    21    25    27    1
    22    27    28   ar
    23    28    29   ar
    24    29    30   ar
    25    30    31   ar
    26    31    32   ar
    27    32    33   ar
    28    33    36    1
    29    36    37   ar
    30    37    38   ar
    31    38    39   ar
    32    39    40   ar
    33    40    41   ar
    34    41    42    1
    35    42    43    1
    36    33    34   ar
    37    34    35   ar
    38     6     1   ar
    39    35    27   ar
    40    13     7    1
    41    34    30   ar
    42    41    36   ar
    43     8    15    1
    44    19    21    1
    45    19    22    1
    46    14    16    1
    47    25    26    1
@<TRIPOS>MOLECULE
*****
 43 47 0 0 0
SMALL
GASTEIGER

@<TRIPOS>ATOM
      1 C         138.8221  139.0722  162.6321 C.ar    1  UNL1        0.1518
      2 C         139.0849  139.0278  164.1082 C.ar    1  UNL1        0.0362
      3 C         138.5429  140.1059  164.9992 C.ar    1  UNL1        0.0072
      4 C         137.7382  141.2284  164.4142 C.ar    1  UNL1       -0.0005
      5 C         137.4755  141.2729  162.9380 C.ar    1  UNL1        0.0175
      6 C         138.0174  140.1948  162.0469 C.ar    1  UNL1        0.0849
      7 C         138.8056  140.0615  166.4754 C.3     1  UNL1        0.1342
      8 O         137.6820  139.0722  166.3809 O.3     1  UNL1       -0.3802
      9 C         139.8380  141.0662  166.0572 C.3     1  UNL1        0.0509
     10 C         140.7429  141.6829  167.0823 C.3     1  UNL1        0.0754
     11 N         140.6154  141.2949  168.5257 N.3     1  UNL1       -0.2628
     12 C         139.5830  140.2903  168.9438 C.3     1  UNL1        0.1048
     13 C         138.6782  139.6735  167.9187 C.3     1  UNL1        0.1546
     14 O         137.6459  138.6689  168.3369 O.3     1  UNL1       -0.3803
     15 H         137.3980  138.9928  165.4568 H       1  UNL1        0.2108
     16 H         137.6970  138.5329  169.2960 H       1  UNL1        0.2105
     17 C         141.5202  141.9117  169.5508 C.3     1  UNL1        0.1582
     18 C         141.4462  141.4667  170.9812 C.2     1  UNL1        0.2358
     19 N         142.3565  140.3826  171.4777 N.am    1  UNL1       -0.3277
     20 O         140.4617  142.1055  171.9155 O.2     1  UNL1       -0.2738
     21 H         143.0026  139.9633  170.8646 H       1  UNL1        0.1450
     22 H         142.3078  140.0906  172.4166 H       1  UNL1        0.1450
     23 C         140.7738  138.0772  161.2354 C.3     1  UNL1        0.2525
     24 O         139.3641  137.9941  161.7411 O.3     1  UNL1       -0.4702
     25 N         137.7547  140.2392  160.5708 N.pl3   1  UNL1       -0.2790
     26 H         136.9334  139.8384  160.2048 H       1  UNL1        0.1552
     27 C         138.7434  140.8942  159.6524 C.ar    1  UNL1        0.2383
     28 N         138.6220  140.7141  158.1682 N.ar    1  UNL1       -0.2093
     29 C         139.6107  141.3691  157.2499 C.ar    1  UNL1        0.1209
     30 C         140.7208  142.2043  157.8157 C.ar    1  UNL1        0.1021
     31 C         141.8357  142.9669  157.1634 C.ar    1  UNL1        0.0223
     32 C         142.6462  143.6184  158.2445 C.ar    1  UNL1        0.0208
     33 C         142.0321  143.2584  159.5649 C.ar    1  UNL1        0.0859
     34 N         140.8422  142.3844  159.2999 N.ar    1  UNL1       -0.2255
     35 N         139.8535  141.7294  160.2182 N.ar    1  UNL1       -0.1295
     36 C         142.5220  143.6956  160.9135 C.ar    1  UNL1        0.0517
     37 C         143.8736  143.2609  161.3977 C.ar    1  UNL1        0.0045
     38 C         144.3635  143.6981  162.7463 C.ar    1  UNL1        0.0002
     39 C         143.5019  144.5699  163.6109 C.ar    1  UNL1        0.0031
     40 C         142.1503  145.0046  163.1268 C.ar    1  UNL1        0.0369
     41 C         141.6604  144.5674  161.7781 C.ar    1  UNL1        0.1401
     42 O         140.3088  145.0021  161.2941 O.3     1  UNL1       -0.4714
     43 C         139.7360  146.3126  161.7460 C.3     1  UNL1        0.2525
@<TRIPOS>BOND
     1    23    24    1
     2    24     1    1
     3     1     2   ar
     4     2     3   ar
     5     3     7    1
     6     7     8    1
     7     7     9    1
     8     9    10    1
     9    10    11    1
    10    11    17    1
    11    17    18    1
    12    18    19   am
    13    18    20    2
    14    11    12    1
    15    12    13    1
    16    13    14    1
    17     3     4   ar
    18     4     5   ar
    19     5     6   ar
    20     6    25    1
    21    25    27    1
    22    27    28   ar
    23    28    29   ar
    24    29    30   ar
    25    30    31   ar
    26    31    32   ar
    27    32    33   ar
    28    33    36    1
    29    36    37   ar
    30    37    38   ar
    31    38    39   ar
    32    39    40   ar
    33    40    41   ar
    34    41    42    1
    35    42    43    1
    36    33    34   ar
    37    34    35   ar
    38     6     1   ar
    39    35    27   ar
    40    13     7    1
    41    34    30   ar
    42    41    36   ar
    43     8    15    1
    44    19    21    1
    45    19    22    1
    46    14    16    1
    47    25    26    1
@<TRIPOS>MOLECULE
*****
 43 47 0 0 0
SMALL
GASTEIGER

@<TRIPOS>ATOM
      1 C         143.3377  139.4234  163.2523 C.ar    1  UNL1        0.1518
      2 C         143.2082  139.6898  164.7227 C.ar    1  UNL1        0.0362
      3 C         142.1040  139.0455  165.5073 C.ar    1  UNL1        0.0072
      4 C         141.1293  138.1348  164.8214 C.ar    1  UNL1       -0.0005
      5 C         141.2587  137.8684  163.3509 C.ar    1  UNL1        0.0175
      6 C         142.3630  138.5127  162.5663 C.ar    1  UNL1        0.0849
      7 C         141.9745  139.3119  166.9777 C.3     1  UNL1        0.1342
      8 O         143.1626  138.3962  166.9825 O.3     1  UNL1       -0.3802
      9 C         140.8314  140.1351  166.4623 C.3     1  UNL1        0.0509
     10 C         139.9714  140.9066  167.4189 C.3     1  UNL1        0.0754
     11 N         140.2545  140.8550  168.8910 N.3     1  UNL1       -0.2628
     12 C         141.3976  140.0318  169.4065 C.3     1  UNL1        0.1048
     13 C         142.2576  139.2603  168.4499 C.3     1  UNL1        0.1546
     14 O         143.4007  138.4371  168.9654 O.3     1  UNL1       -0.3803
     15 H         143.3712  138.1323  166.0727 H       1  UNL1        0.2108
     16 H         143.4440  138.5131  169.9314 H       1  UNL1        0.2105
     17 C         139.3945  141.6265  169.8477 C.3     1  UNL1        0.1582
     18 C         140.0101  142.6608  170.7427 C.2     1  UNL1        0.2358
     19 N         140.0869  144.0904  170.2949 N.am    1  UNL1       -0.3277
     20 O         140.5488  142.2656  172.0858 O.2     1  UNL1       -0.2738
     21 H         139.7334  144.3498  169.4135 H       1  UNL1        0.1450
     22 H         140.4910  144.7692  170.8824 H       1  UNL1        0.1450
     23 C         145.1714  141.2508  163.0319 C.3     1  UNL1        0.2525
     24 O         144.4420  140.0678  162.4677 O.3     1  UNL1       -0.4702
     25 N         142.4925  138.2463  161.0959 N.pl3   1  UNL1       -0.2790
     26 H         143.1488  137.5885  160.7707 H       1  UNL1        0.1552
     27 C         141.6219  138.9822  160.1208 C.ar    1  UNL1        0.2383
     28 N         141.5181  138.5078  158.7016 N.ar    1  UNL1       -0.2093
     29 C         140.6476  139.2437  157.7266 C.ar    1  UNL1        0.1209
     30 C         139.8809  140.4540  158.1708 C.ar    1  UNL1        0.1021
     31 C         138.9497  141.3760  157.4407 C.ar    1  UNL1        0.0223
     32 C         138.4781  142.4202  158.4088 C.ar    1  UNL1        0.0208
     33 C         139.1177  142.1436  159.7371 C.ar    1  UNL1        0.0859
     34 N         139.9846  140.9284  159.5900 N.ar    1  UNL1       -0.2255
     35 N         140.8551  140.1925  160.5650 N.ar    1  UNL1       -0.1295
     36 C         138.9243  142.9420  160.9921 C.ar    1  UNL1        0.0517
     37 C         139.6426  144.2468  161.1691 C.ar    1  UNL1        0.0045
     38 C         139.4492  145.0452  162.4242 C.ar    1  UNL1        0.0002
     39 C         138.5375  144.5388  163.5023 C.ar    1  UNL1        0.0031
     40 C         137.8192  143.2340  163.3253 C.ar    1  UNL1        0.0369
     41 C         138.0126  142.4356  162.0702 C.ar    1  UNL1        0.1401
     42 O         137.2942  141.1307  161.8933 O.3     1  UNL1       -0.4714
     43 C         137.8579  139.8768  162.4931 C.3     1  UNL1        0.2525
@<TRIPOS>BOND
     1    23    24    1
     2    24     1    1
     3     1     2   ar
     4     2     3   ar
     5     3     7    1
     6     7     8    1
     7     7     9    1
     8     9    10    1
     9    10    11    1
    10    11    17    1
    11    17    18    1
    12    18    19   am
    13    18    20    2
    14    11    12    1
    15    12    13    1
    16    13    14    1
    17     3     4   ar
    18     4     5   ar
    19     5     6   ar
    20     6    25    1
    21    25    27    1
    22    27    28   ar
    23    28    29   ar
    24    29    30   ar
    25    30    31   ar
    26    31    32   ar
    27    32    33   ar
    28    33    36    1
    29    36    37   ar
    30    37    38   ar
    31    38    39   ar
    32    39    40   ar
    33    40    41   ar
    34    41    42    1
    35    42    43    1
    36    33    34   ar
    37    34    35   ar
    38     6     1   ar
    39    35    27   ar
    40    13     7    1
    41    34    30   ar
    42    41    36   ar
    43     8    15    1
    44    19    21    1
    45    19    22    1
    46    14    16    1
    47    25    26    1
@<TRIPOS>MOLECULE
*****
 43 47 0 0 0
SMALL
GASTEIGER

@<TRIPOS>ATOM
      1 C         141.6645  143.8665  163.9612 C.ar    1  UNL1        0.1518
      2 C         141.7002  142.8966  165.1048 C.ar    1  UNL1        0.0362
      3 C         142.7528  141.8289  165.1501 C.ar    1  UNL1        0.0072
      4 C         143.7697  141.7311  164.0518 C.ar    1  UNL1       -0.0005
      5 C         143.7340  142.7011  162.9081 C.ar    1  UNL1        0.0175
      6 C         142.6814  143.7688  162.8628 C.ar    1  UNL1        0.0849
      7 C         142.7885  140.8589  166.2937 C.3     1  UNL1        0.1342
      8 O         143.1012  139.9322  165.1564 O.3     1  UNL1       -0.3802
      9 C         142.4634  142.1224  167.0339 C.3     1  UNL1        0.0509
     10 C         142.2826  142.0942  168.5227 C.3     1  UNL1        0.0754
     11 N         142.4269  140.8023  169.2714 N.3     1  UNL1       -0.2628
     12 C         142.7520  139.5389  168.5312 C.3     1  UNL1        0.1048
     13 C         142.9328  139.5671  167.0424 C.3     1  UNL1        0.1546
     14 O         143.2579  138.3036  166.3023 O.3     1  UNL1       -0.3803
     15 H         143.1129  140.4326  164.3255 H       1  UNL1        0.2108
     16 H         143.3152  137.5666  166.9303 H       1  UNL1        0.2105
     17 C         142.2461  140.7741  170.7602 C.3     1  UNL1        0.1582
     18 C         140.8693  140.8528  171.3500 C.2     1  UNL1        0.2358
     19 N         139.9421  139.6778  171.2498 N.am    1  UNL1       -0.3277
     20 O         140.4194  142.1063  172.0401 O.2     1  UNL1       -0.2738
     21 H         140.2372  138.8550  170.7969 H       1  UNL1        0.1450
     22 H         139.0384  139.7295  171.6370 H       1  UNL1        0.1450
     23 C         139.2972  144.7210  164.6058 C.3     1  UNL1        0.2525
     24 O         140.6119  144.9343  163.9160 O.3     1  UNL1       -0.4702
     25 N         142.6457  144.7387  161.7192 N.pl3   1  UNL1       -0.2790
     26 H         143.2123  145.5436  161.7385 H       1  UNL1        0.1552
     27 C         141.7467  144.4824  160.5461 C.ar    1  UNL1        0.2383
     28 N         141.6907  145.4660  159.4151 N.ar    1  UNL1       -0.2093
     29 C         140.7917  145.2096  158.2421 C.ar    1  UNL1        0.1209
     30 C         139.9487  143.9696  158.2001 C.ar    1  UNL1        0.1021
     31 C         138.9748  143.4520  157.1833 C.ar    1  UNL1        0.0223
     32 C         138.4290  142.1484  157.6860 C.ar    1  UNL1        0.0208
     33 C         139.0655  141.8604  159.0134 C.ar    1  UNL1        0.0859
     34 N         140.0047  142.9860  159.3311 N.ar    1  UNL1       -0.2255
     35 N         140.9037  143.2424  160.5041 N.ar    1  UNL1       -0.1295
     36 C         138.8080  140.6580  159.8724 C.ar    1  UNL1        0.0517
     37 C         137.9164  140.7712  161.0733 C.ar    1  UNL1        0.0045
     38 C         137.6589  139.5687  161.9322 C.ar    1  UNL1        0.0002
     39 C         138.2930  138.2530  161.5903 C.ar    1  UNL1        0.0031
     40 C         139.1846  138.1399  160.3894 C.ar    1  UNL1        0.0369
     41 C         139.4421  139.3423  159.5304 C.ar    1  UNL1        0.1401
     42 O         140.3337  139.2290  158.3295 O.3     1  UNL1       -0.4714
     43 C         139.8308  138.5656  157.0818 C.3     1  UNL1        0.2525
@<TRIPOS>BOND
     1    23    24    1
     2    24     1    1
     3     1     2   ar
     4     2     3   ar
     5     3     7    1
     6     7     8    1
     7     7     9    1
     8     9    10    1
     9    10    11    1
    10    11    17    1
    11    17    18    1
    12    18    19   am
    13    18    20    2
    14    11    12    1
    15    12    13    1
    16    13    14    1
    17     3     4   ar
    18     4     5   ar
    19     5     6   ar
    20     6    25    1
    21    25    27    1
    22    27    28   ar
    23    28    29   ar
    24    29    30   ar
    25    30    31   ar
    26    31    32   ar
    27    32    33   ar
    28    33    36    1
    29    36    37   ar
    30    37    38   ar
    31    38    39   ar
    32    39    40   ar
    33    40    41   ar
    34    41    42    1
    35    42    43    1
    36    33    34   ar
    37    34    35   ar
    38     6     1   ar
    39    35    27   ar
    40    13     7    1
    41    34    30   ar
    42    41    36   ar
    43     8    15    1
    44    19    21    1
    45    19    22    1
    46    14    16    1
    47    25    26    1
@<TRIPOS>MOLECULE
*****
 43 47 0 0 0
SMALL
GASTEIGER

@<TRIPOS>ATOM
      1 C         138.3335  140.4177  163.8527 C.ar    1  UNL1        0.1518
      2 C         138.5949  140.4562  162.3762 C.ar    1  UNL1        0.0362
      3 C         139.0514  139.2182  161.6628 C.ar    1  UNL1        0.0072
      4 C         139.2464  137.9417  162.4259 C.ar    1  UNL1       -0.0005
      5 C         138.9851  137.9031  163.9025 C.ar    1  UNL1        0.0175
      6 C         138.5286  139.1411  164.6159 C.ar    1  UNL1        0.0849
      7 C         139.3128  139.2568  160.1863 C.3     1  UNL1        0.1342
      8 O         137.9041  139.7714  160.2149 O.3     1  UNL1       -0.3802
      9 C         140.6307  138.7288  160.6704 C.3     1  UNL1        0.0509
     10 C         141.7207  138.4180  159.6879 C.3     1  UNL1        0.0754
     11 N         141.4929  138.6353  158.2213 N.3     1  UNL1       -0.2628
     12 C         140.1750  139.1632  157.7372 C.3     1  UNL1        0.1048
     13 C         139.0849  139.4740  158.7196 C.3     1  UNL1        0.1546
     14 O         137.7671  140.0020  158.2355 O.3     1  UNL1       -0.3803
     15 H         137.5900  139.8031  161.1321 H       1  UNL1        0.2108
     16 H         137.7865  140.0829  157.2691 H       1  UNL1        0.2105
     17 C         142.5830  138.3245  157.2389 C.3     1  UNL1        0.1582
     18 C         142.6928  136.9490  156.6509 C.2     1  UNL1        0.2358
     19 N         141.4593  136.1206  156.4449 N.am    1  UNL1       -0.3277
     20 O         144.0362  136.4017  156.2688 O.2     1  UNL1       -0.2738
     21 H         140.5776  136.4798  156.6956 H       1  UNL1        0.1450
     22 H         141.5315  135.2178  156.0589 H       1  UNL1        0.1450
     23 C         137.6440  142.9220  163.7966 C.3     1  UNL1        0.2525
     24 O         137.8771  141.6557  164.5662 O.3     1  UNL1       -0.4702
     25 N         138.2672  139.1026  166.0924 N.pl3   1  UNL1       -0.2790
     26 H         137.4551  138.6658  166.4373 H       1  UNL1        0.1552
     27 C         139.2432  139.7296  167.0435 C.ar    1  UNL1        0.2383
     28 N         138.9768  139.7000  168.5193 N.ar    1  UNL1       -0.2093
     29 C         139.9527  140.3270  169.4703 C.ar    1  UNL1        0.1209
     30 C         141.1950  140.9836  168.9455 C.ar    1  UNL1        0.1021
     31 C         142.3307  141.6793  169.6356 C.ar    1  UNL1        0.0223
     32 C         143.2990  142.1389  168.5863 C.ar    1  UNL1        0.0208
     33 C         142.7617  141.7273  167.2476 C.ar    1  UNL1        0.0859
     34 N         141.4614  141.0133  167.4696 N.ar    1  UNL1       -0.2255
     35 N         140.4855  140.3863  166.5187 N.ar    1  UNL1       -0.1295
     36 C         143.4108  141.9845  165.9200 C.ar    1  UNL1        0.0517
     37 C         143.5906  143.3918  165.4332 C.ar    1  UNL1        0.0045
     38 C         144.2397  143.6490  164.1056 C.ar    1  UNL1        0.0002
     39 C         144.7091  142.4989  163.2648 C.ar    1  UNL1        0.0031
     40 C         144.5293  141.0916  163.7517 C.ar    1  UNL1        0.0369
     41 C         143.8802  140.8344  165.0793 C.ar    1  UNL1        0.1401
     42 O         143.7005  139.4269  165.5661 O.3     1  UNL1       -0.4714
     43 C         142.8950  138.4515  164.7600 C.3     1  UNL1        0.2525
@<TRIPOS>BOND
     1    23    24    1
     2    24     1    1
     3     1     2   ar
     4     2     3   ar
     5     3     7    1
     6     7     8    1
     7     7     9    1
     8     9    10    1
     9    10    11    1
    10    11    17    1
    11    17    18    1
    12    18    19   am
    13    18    20    2
    14    11    12    1
    15    12    13    1
    16    13    14    1
    17     3     4   ar
    18     4     5   ar
    19     5     6   ar
    20     6    25    1
    21    25    27    1
    22    27    28   ar
    23    28    29   ar
    24    29    30   ar
    25    30    31   ar
    26    31    32   ar
    27    32    33   ar
    28    33    36    1
    29    36    37   ar
    30    37    38   ar
    31    38    39   ar
    32    39    40   ar
    33    40    41   ar
    34    41    42    1
    35    42    43    1
    36    33    34   ar
    37    34    35   ar
    38     6     1   ar
    39    35    27   ar
    40    13     7    1
    41    34    30   ar
    42    41    36   ar
    43     8    15    1
    44    19    21    1
    45    19    22    1
    46    14    16    1
    47    25    26    1
@<TRIPOS>MOLECULE
*****
 43 47 0 0 0
SMALL
GASTEIGER

@<TRIPOS>ATOM
      1 C         138.0444  140.6681  163.2832 C.ar    1  UNL1        0.1518
      2 C         138.8627  140.6991  164.5399 C.ar    1  UNL1        0.0362
      3 C         139.7885  139.5632  164.8603 C.ar    1  UNL1        0.0072
      4 C         139.8960  138.3963  163.9239 C.ar    1  UNL1       -0.0005
      5 C         139.0777  138.3654  162.6670 C.ar    1  UNL1        0.0175
      6 C         138.1519  139.5013  162.3467 C.ar    1  UNL1        0.0849
      7 C         140.6067  139.5941  166.1170 C.3     1  UNL1        0.1342
      8 O         141.6962  139.4171  165.1012 O.3     1  UNL1       -0.3802
      9 C         139.2332  139.7603  166.6964 C.3     1  UNL1        0.0509
     10 C         139.0562  139.8960  168.1797 C.3     1  UNL1        0.0754
     11 N         140.2528  139.8655  169.0837 N.3     1  UNL1       -0.2628
     12 C         141.6264  139.6992  168.5043 C.3     1  UNL1        0.1048
     13 C         141.8034  139.5635  167.0210 C.3     1  UNL1        0.1546
     14 O         143.1769  139.3973  166.4417 O.3     1  UNL1       -0.3803
     15 H         141.3073  139.3788  164.2133 H       1  UNL1        0.2108
     16 H         143.8319  139.3985  167.1572 H       1  UNL1        0.2105
     17 C         140.0758  140.0012  170.5671 C.3     1  UNL1        0.1582
     18 C         140.9747  140.9121  171.3493 C.2     1  UNL1        0.2358
     19 N         142.3997  140.5203  171.6065 N.am    1  UNL1       -0.3277
     20 O         140.4488  142.2151  171.8745 O.2     1  UNL1       -0.2738
     21 H         142.7449  139.6652  171.2619 H       1  UNL1        0.1450
     22 H         142.9896  141.1183  172.1200 H       1  UNL1        0.1450
     23 C         137.6397  143.2102  162.9312 C.3     1  UNL1        0.2525
     24 O         137.1186  141.8041  162.9629 O.3     1  UNL1       -0.4702
     25 N         137.3337  139.4704  161.0900 N.pl3   1  UNL1       -0.2790
     26 H         136.4787  138.9826  161.0711 H       1  UNL1        0.1552
     27 C         137.8181  140.1826  159.8618 C.ar    1  UNL1        0.2383
     28 N         136.9812  140.1849  158.6171 N.ar    1  UNL1       -0.2093
     29 C         137.4656  140.8971  157.3890 C.ar    1  UNL1        0.1209
     30 C         138.7869  141.6069  157.4058 C.ar    1  UNL1        0.1021
     31 C         139.5198  142.3885  156.3559 C.ar    1  UNL1        0.0223
     32 C         140.8096  142.8692  156.9520 C.ar    1  UNL1        0.0208
     33 C         140.8739  142.3846  158.3701 C.ar    1  UNL1        0.0859
     34 N         139.6238  141.6046  158.6506 N.ar    1  UNL1       -0.2255
     35 N         139.1394  140.8924  159.8786 N.ar    1  UNL1       -0.1295
     36 C         141.9920  142.6361  159.3379 C.ar    1  UNL1        0.0517
     37 C         143.3464  142.0407  159.0903 C.ar    1  UNL1        0.0045
     38 C         144.4645  142.2922  160.0581 C.ar    1  UNL1        0.0002
     39 C         144.2283  143.1389  161.2735 C.ar    1  UNL1        0.0031
     40 C         142.8739  143.7342  161.5211 C.ar    1  UNL1        0.0369
     41 C         141.7558  143.4828  160.5533 C.ar    1  UNL1        0.1401
     42 O         140.4015  144.0782  160.8010 O.3     1  UNL1       -0.4714
     43 C         140.1957  145.5575  160.6622 C.3     1  UNL1        0.2525
@<TRIPOS>BOND
     1    23    24    1
     2    24     1    1
     3     1     2   ar
     4     2     3   ar
     5     3     7    1
     6     7     8    1
     7     7     9    1
     8     9    10    1
     9    10    11    1
    10    11    17    1
    11    17    18    1
    12    18    19   am
    13    18    20    2
    14    11    12    1
    15    12    13    1
    16    13    14    1
    17     3     4   ar
    18     4     5   ar
    19     5     6   ar
    20     6    25    1
    21    25    27    1
    22    27    28   ar
    23    28    29   ar
    24    29    30   ar
    25    30    31   ar
    26    31    32   ar
    27    32    33   ar
    28    33    36    1
    29    36    37   ar
    30    37    38   ar
    31    38    39   ar
    32    39    40   ar
    33    40    41   ar
    34    41    42    1
    35    42    43    1
    36    33    34   ar
    37    34    35   ar
    38     6     1   ar
    39    35    27   ar
    40    13     7    1
    41    34    30   ar
    42    41    36   ar
    43     8    15    1
    44    19    21    1
    45    19    22    1
    46    14    16    1
    47    25    26    1
