@<TRIPOS>MOLECULE
*****
 34 39 0 0 0
SMALL
GASTEIGER

@<TRIPOS>ATOM
      1 C         142.9394  138.7082  161.6500 C.3     1  UNL1        0.0230
      2 C         141.7279  138.9345  160.7949 C.3     1  UNL1        0.0233
      3 C         140.6709  138.9842  159.7318 C.3     1  UNL1        0.0935
      4 N         141.1564  138.1867  158.5578 N.am    1  UNL1       -0.2795
      5 C         140.4150  137.9699  157.2720 C.2     1  UNL1        0.2255
      6 O         139.0581  138.5787  157.0767 O.2     1  UNL1       -0.2749
      7 C         142.5134  137.6441  158.8953 C.3     1  UNL1        0.0935
      8 C         142.8666  138.1063  160.2780 C.3     1  UNL1        0.0233
      9 C         141.0305  137.1442  156.1814 C.3     1  UNL1        0.0811
     10 C         141.4432  136.9851  154.7481 C.3     1  UNL1        0.0142
     11 C         141.6839  135.8732  155.7258 C.3     1  UNL1        0.0315
     12 C         142.2000  134.4974  156.0271 C.ar    1  UNL1       -0.0203
     13 C         143.3836  134.3220  156.9316 C.ar    1  UNL1        0.0072
     14 C         143.8999  132.9462  157.2330 C.ar    1  UNL1        0.0582
     15 CL        145.0835  132.7707  158.1376 Cl      1  UNL1       -0.0822
     16 C         143.2324  131.7459  156.6299 C.ar    1  UNL1        0.0228
     17 C         142.0487  131.9214  155.7253 C.ar    1  UNL1        0.0582
     18 CL        141.3813  130.7211  155.1221 Cl      1  UNL1       -0.0822
     19 C         141.5326  133.2971  155.4239 C.ar    1  UNL1        0.0072
     20 C         143.6807  138.9250  162.9358 C.3     1  UNL1        0.0898
     21 O         141.6423  137.2150  164.3216 O.2     1  UNL1       -0.2702
     22 C         141.9369  138.5940  164.8331 C.2     1  UNL1        0.2456
     23 N         142.9561  139.4490  164.1402 N.am    1  UNL1       -0.3009
     24 H         143.1495  140.3541  164.4759 H       1  UNL1        0.1497
     25 C         141.2124  139.1179  166.0375 C.2     1  UNL1        0.0525
     26 C         139.7137  139.1807  166.0426 C.2     1  UNL1       -0.0153
     27 C         138.9892  139.7047  167.2470 C.3     1  UNL1        0.0726
     28 C         139.7633  140.1657  168.4462 C.2     1  UNL1        0.0933
     29 N         139.3274  140.7260  169.7677 N.am    1  UNL1       -0.1431
     30 C         140.5567  141.0094  170.5792 C.2     1  UNL1        0.4298
     31 O         140.5853  141.5782  171.9669 O.2     1  UNL1       -0.2238
     32 O         141.7523  140.6243  169.7593 O.3     1  UNL1       -0.4079
     33 C         141.2620  140.1029  168.4411 C.2     1  UNL1        0.1618
     34 C         141.9865  139.5790  167.2367 C.2     1  UNL1        0.0429
@<TRIPOS>BOND
     1    21    22    2
     2    22    23   am
     3    23    20    1
     4     1    20    1
     5     1     2    1
     6     2     3    1
     7     3     4    1
     8     4     5   am
     9     5     6    2
    10     5     9    1
    11     9    10    1
    12    10    11    1
    13    11    12    1
    14    12    13   ar
    15    13    14   ar
    16    14    15    1
    17    14    16   ar
    18    16    17   ar
    19    17    18    1
    20    17    19   ar
    21     4     7    1
    22     8     7    1
    23    22    25    1
    24    25    26    2
    25    26    27    1
    26    27    28    1
    27    28    29    2
    28    29    30    1
    29    30    31    2
    30    30    32    1
    31    32    33    1
    32    33    34    2
    33     8     1    1
    34    34    25    1
    35     8     2    1
    36    33    28    1
    37    11     9    1
    38    19    12   ar
    39    23    24    1
@<TRIPOS>MOLECULE
*****
 34 39 0 0 0
SMALL
GASTEIGER

@<TRIPOS>ATOM
      1 C         140.3451  144.2927  160.0541 C.3     1  UNL1        0.0230
      2 C         139.6982  144.8876  161.2697 C.3     1  UNL1        0.0233
      3 C         139.1847  145.2410  162.6340 C.3     1  UNL1        0.0935
      4 N         139.6882  144.2099  163.6002 N.am    1  UNL1       -0.2795
      5 C         139.4151  144.1754  165.0747 C.2     1  UNL1        0.2255
      6 O         138.5676  145.2403  165.7055 O.2     1  UNL1       -0.2749
      7 C         140.5129  143.2193  162.8329 C.3     1  UNL1        0.0935
      8 C         140.5190  143.6382  161.3925 C.3     1  UNL1        0.0233
      9 C         139.9894  143.0762  165.9183 C.3     1  UNL1        0.0811
     10 C         140.8666  142.6310  167.0507 C.3     1  UNL1        0.0142
     11 C         140.1068  141.6174  166.2473 C.3     1  UNL1        0.0315
     12 C         139.7359  140.1901  165.9734 C.ar    1  UNL1       -0.0203
     13 C         138.5885  139.5597  166.7054 C.ar    1  UNL1        0.0072
     14 C         138.2175  138.1322  166.4315 C.ar    1  UNL1        0.0582
     15 CL        137.0701  137.5018  167.1635 Cl      1  UNL1       -0.0822
     16 C         138.9941  137.3353  165.4256 C.ar    1  UNL1        0.0228
     17 C         140.1417  137.9658  164.6936 C.ar    1  UNL1        0.0582
     18 CL        140.9183  137.1689  163.6877 Cl      1  UNL1       -0.0822
     19 C         140.5125  139.3931  164.9675 C.ar    1  UNL1        0.0072
     20 C         140.6183  144.3272  158.5797 C.3     1  UNL1        0.0898
     21 O         139.0205  144.5122  156.0473 O.2     1  UNL1       -0.2702
     22 C         139.7446  145.7186  156.5670 C.2     1  UNL1        0.2456
     23 N         140.5435  145.6261  157.8331 N.am    1  UNL1       -0.3009
     24 H         141.0188  146.4179  158.1742 H       1  UNL1        0.1497
     25 C         139.6699  147.0176  155.8205 C.2     1  UNL1        0.0525
     26 C         140.2978  147.1401  154.4638 C.2     1  UNL1       -0.0153
     27 C         140.2230  148.4390  153.7174 C.3     1  UNL1        0.0726
     28 C         139.5204  149.6154  154.3276 C.2     1  UNL1        0.0933
     29 N         139.2875  151.0125  153.8335 N.am    1  UNL1       -0.1431
     30 C         138.5157  151.7533  154.8849 C.2     1  UNL1        0.4298
     31 O         138.0669  153.1825  154.8063 O.2     1  UNL1       -0.2238
     32 O         138.2716  150.8141  156.0288 O.3     1  UNL1       -0.4079
     33 C         138.8925  149.4928  155.6843 C.2     1  UNL1        0.1618
     34 C         138.9672  148.1939  156.4308 C.2     1  UNL1        0.0429
@<TRIPOS>BOND
     1    21    22    2
     2    22    23   am
     3    23    20    1
     4     1    20    1
     5     1     2    1
     6     2     3    1
     7     3     4    1
     8     4     5   am
     9     5     6    2
    10     5     9    1
    11     9    10    1
    12    10    11    1
    13    11    12    1
    14    12    13   ar
    15    13    14   ar
    16    14    15    1
    17    14    16   ar
    18    16    17   ar
    19    17    18    1
    20    17    19   ar
    21     4     7    1
    22     8     7    1
    23    22    25    1
    24    25    26    2
    25    26    27    1
    26    27    28    1
    27    28    29    2
    28    29    30    1
    29    30    31    2
    30    30    32    1
    31    32    33    1
    32    33    34    2
    33     8     1    1
    34    34    25    1
    35     8     2    1
    36    33    28    1
    37    11     9    1
    38    19    12   ar
    39    23    24    1
@<TRIPOS>MOLECULE
*****
 34 39 0 0 0
SMALL
GASTEIGER

@<TRIPOS>ATOM
      1 C         143.0342  138.8685  159.0866 C.3     1  UNL1        0.0230
      2 C         143.5891  138.5575  160.4451 C.3     1  UNL1        0.0233
      3 C         144.0876  138.5500  161.8598 C.3     1  UNL1        0.0935
      4 N         143.9340  139.9358  162.4129 N.am    1  UNL1       -0.2795
      5 C         144.3081  140.3796  163.7960 C.2     1  UNL1        0.2255
      6 O         144.8950  139.3973  164.7658 O.2     1  UNL1       -0.2749
      7 C         143.3405  140.7999  161.3400 C.3     1  UNL1        0.0935
      8 C         143.1274  139.9480  160.1238 C.3     1  UNL1        0.0233
      9 C         144.0953  141.8057  164.2093 C.3     1  UNL1        0.0811
     10 C         144.5692  143.0349  164.9266 C.3     1  UNL1        0.0142
     11 C         143.2527  143.0467  164.2079 C.3     1  UNL1        0.0315
     12 C         142.0061  143.7700  163.7922 C.ar    1  UNL1       -0.0203
     13 C         141.8823  144.3109  162.3987 C.ar    1  UNL1        0.0072
     14 C         140.6356  145.0343  161.9829 C.ar    1  UNL1        0.0582
     15 CL        140.5118  145.5752  160.5894 Cl      1  UNL1       -0.0822
     16 C         139.5129  145.2166  162.9608 C.ar    1  UNL1        0.0228
     17 C         139.6368  144.6757  164.3544 C.ar    1  UNL1        0.0582
     18 CL        138.5141  144.8581  165.3323 Cl      1  UNL1       -0.0822
     19 C         140.8834  143.9524  164.7701 C.ar    1  UNL1        0.0072
     20 C         142.6601  138.4247  157.7035 C.3     1  UNL1        0.0898
     21 O         144.3769  136.7703  155.8825 O.2     1  UNL1       -0.2702
     22 C         143.1710  136.1614  156.5344 C.2     1  UNL1        0.2456
     23 N         142.3126  136.9885  157.4449 N.am    1  UNL1       -0.3009
     24 H         141.5212  136.5888  157.8728 H       1  UNL1        0.1497
     25 C         142.8235  134.7252  156.2758 C.2     1  UNL1        0.0525
     26 C         141.7506  134.3797  155.2862 C.2     1  UNL1       -0.0153
     27 C         141.4032  132.9436  155.0276 C.3     1  UNL1        0.0726
     28 C         142.1286  131.8531  155.7588 C.2     1  UNL1        0.0933
     29 N         142.0046  130.3589  155.7124 N.am    1  UNL1       -0.1431
     30 C         143.0008  129.7810  156.6734 C.2     1  UNL1        0.4298
     31 O         143.2190  128.3222  156.9463 O.2     1  UNL1       -0.2238
     32 O         143.7405  130.9181  157.3137 O.3     1  UNL1       -0.4079
     33 C         143.2015  132.1986  156.7484 C.2     1  UNL1        0.1618
     34 C         143.5489  133.6347  157.0070 C.2     1  UNL1        0.0429
@<TRIPOS>BOND
     1    21    22    2
     2    22    23   am
     3    23    20    1
     4     1    20    1
     5     1     2    1
     6     2     3    1
     7     3     4    1
     8     4     5   am
     9     5     6    2
    10     5     9    1
    11     9    10    1
    12    10    11    1
    13    11    12    1
    14    12    13   ar
    15    13    14   ar
    16    14    15    1
    17    14    16   ar
    18    16    17   ar
    19    17    18    1
    20    17    19   ar
    21     4     7    1
    22     8     7    1
    23    22    25    1
    24    25    26    2
    25    26    27    1
    26    27    28    1
    27    28    29    2
    28    29    30    1
    29    30    31    2
    30    30    32    1
    31    32    33    1
    32    33    34    2
    33     8     1    1
    34    34    25    1
    35     8     2    1
    36    33    28    1
    37    11     9    1
    38    19    12   ar
    39    23    24    1
@<TRIPOS>MOLECULE
*****
 34 39 0 0 0
SMALL
GASTEIGER

@<TRIPOS>ATOM
      1 C         143.0433  139.0423  159.1254 C.3     1  UNL1        0.0230
      2 C         143.6692  138.7466  160.4561 C.3     1  UNL1        0.0233
      3 C         144.2217  138.7491  161.8506 C.3     1  UNL1        0.0935
      4 N         144.0014  140.1132  162.4341 N.am    1  UNL1       -0.2795
      5 C         144.3998  140.5586  163.8099 C.2     1  UNL1        0.2255
      6 O         145.0855  139.6011  164.7390 O.2     1  UNL1       -0.2749
      7 C         143.3127  140.9539  161.4002 C.3     1  UNL1        0.0935
      8 C         143.1074  140.1092  160.1777 C.3     1  UNL1        0.0233
      9 C         144.1124  141.9613  164.2568 C.3     1  UNL1        0.0811
     10 C         144.5076  143.1856  165.0280 C.3     1  UNL1        0.0142
     11 C         143.2196  143.1667  164.2594 C.3     1  UNL1        0.0315
     12 C         141.9606  143.8516  163.8172 C.ar    1  UNL1       -0.0203
     13 C         140.8102  143.9939  164.7692 C.ar    1  UNL1        0.0072
     14 C         139.5510  144.6789  164.3270 C.ar    1  UNL1        0.0582
     15 CL        138.4007  144.8212  165.2790 Cl      1  UNL1       -0.0822
     16 C         139.4424  145.2215  162.9329 C.ar    1  UNL1        0.0228
     17 C         140.5928  145.0792  161.9809 C.ar    1  UNL1        0.0582
     18 CL        140.4842  145.6218  160.5867 Cl      1  UNL1       -0.0822
     19 C         141.8519  144.3942  162.4231 C.ar    1  UNL1        0.0072
     20 C         142.6449  138.5969  157.7495 C.3     1  UNL1        0.0898
     21 O         144.3518  136.9700  155.8950 O.2     1  UNL1       -0.2702
     22 C         143.1663  136.3431  156.5669 C.2     1  UNL1        0.2456
     23 N         142.3128  137.1566  157.4942 N.am    1  UNL1       -0.3009
     24 H         141.5347  136.7451  157.9352 H       1  UNL1        0.1497
     25 C         142.8342  134.9027  156.3116 C.2     1  UNL1        0.0525
     26 C         141.7890  134.5423  155.2979 C.2     1  UNL1       -0.0153
     27 C         141.4570  133.1020  155.0426 C.3     1  UNL1        0.0726
     28 C         142.1702  132.0221  155.8010 C.2     1  UNL1        0.0933
     29 N         142.0565  130.5268  155.7640 N.am    1  UNL1       -0.1431
     30 C         143.0314  129.9632  156.7547 C.2     1  UNL1        0.4298
     31 O         143.2515  128.5081  157.0452 O.2     1  UNL1       -0.2238
     32 O         143.7477  131.1100  157.4041 O.3     1  UNL1       -0.4079
     33 C         143.2154  132.3825  156.8147 C.2     1  UNL1        0.1618
     34 C         143.5474  133.8228  157.0700 C.2     1  UNL1        0.0429
@<TRIPOS>BOND
     1    21    22    2
     2    22    23   am
     3    23    20    1
     4     1    20    1
     5     1     2    1
     6     2     3    1
     7     3     4    1
     8     4     5   am
     9     5     6    2
    10     5     9    1
    11     9    10    1
    12    10    11    1
    13    11    12    1
    14    12    13   ar
    15    13    14   ar
    16    14    15    1
    17    14    16   ar
    18    16    17   ar
    19    17    18    1
    20    17    19   ar
    21     4     7    1
    22     8     7    1
    23    22    25    1
    24    25    26    2
    25    26    27    1
    26    27    28    1
    27    28    29    2
    28    29    30    1
    29    30    31    2
    30    30    32    1
    31    32    33    1
    32    33    34    2
    33     8     1    1
    34    34    25    1
    35     8     2    1
    36    33    28    1
    37    11     9    1
    38    19    12   ar
    39    23    24    1
@<TRIPOS>MOLECULE
*****
 34 39 0 0 0
SMALL
GASTEIGER

@<TRIPOS>ATOM
      1 C         139.0311  139.5812  162.6163 C.3     1  UNL1        0.0230
      2 C         140.4121  139.6553  162.0355 C.3     1  UNL1        0.0233
      3 C         141.6659  139.5699  161.2165 C.3     1  UNL1        0.0935
      4 N         141.3460  138.8228  159.9557 N.am    1  UNL1       -0.2795
      5 C         142.3086  138.5075  158.8494 C.2     1  UNL1        0.2255
      6 O         143.7380  138.9512  158.9497 O.2     1  UNL1       -0.2749
      7 C         139.8946  138.4464  159.9955 C.3     1  UNL1        0.0935
      8 C         139.3174  138.9609  161.2809 C.3     1  UNL1        0.0233
      9 C         141.8418  137.7485  157.6427 C.3     1  UNL1        0.0811
     10 C         140.9535  137.6415  156.4388 C.3     1  UNL1        0.0142
     11 C         141.9218  136.5409  156.7566 C.3     1  UNL1        0.0315
     12 C         142.5269  135.2082  156.4285 C.ar    1  UNL1       -0.0203
     13 C         142.1618  134.5130  155.1505 C.ar    1  UNL1        0.0072
     14 C         142.7669  133.1802  154.8223 C.ar    1  UNL1        0.0582
     15 CL        142.4018  132.4850  153.5443 Cl      1  UNL1       -0.0822
     16 C         143.7371  132.5427  155.7722 C.ar    1  UNL1        0.0228
     17 C         144.1022  133.2380  157.0503 C.ar    1  UNL1        0.0582
     18 CL        145.0725  132.6005  158.0001 Cl      1  UNL1       -0.0822
     19 C         143.4971  134.5707  157.3784 C.ar    1  UNL1        0.0072
     20 C         138.0685  139.8965  163.7226 C.3     1  UNL1        0.0898
     21 O         139.0856  138.1474  165.9376 O.2     1  UNL1       -0.2702
     22 C         139.0744  139.6381  166.1041 C.2     1  UNL1        0.2456
     23 N         138.5659  140.5126  164.9966 N.am    1  UNL1       -0.3009
     24 H         138.5586  141.4910  165.1059 H       1  UNL1        0.1497
     25 C         139.5717  140.2542  167.3781 C.2     1  UNL1        0.0525
     26 C         138.8970  139.9347  168.6791 C.2     1  UNL1       -0.0153
     27 C         139.3944  140.5508  169.9531 C.3     1  UNL1        0.0726
     28 C         140.5665  141.4865  169.9260 C.2     1  UNL1        0.0933
     29 N         141.2746  142.2398  171.0128 N.am    1  UNL1       -0.1431
     30 C         142.3870  143.0249  170.3835 C.2     1  UNL1        0.4298
     31 O         143.3509  143.9209  171.1034 O.2     1  UNL1       -0.2238
     32 O         142.3663  142.7568  168.9077 O.3     1  UNL1       -0.4079
     33 C         141.2412  141.8060  168.6251 C.2     1  UNL1        0.1618
     34 C         140.7438  141.1899  167.3511 C.2     1  UNL1        0.0429
@<TRIPOS>BOND
     1    21    22    2
     2    22    23   am
     3    23    20    1
     4     1    20    1
     5     1     2    1
     6     2     3    1
     7     3     4    1
     8     4     5   am
     9     5     6    2
    10     5     9    1
    11     9    10    1
    12    10    11    1
    13    11    12    1
    14    12    13   ar
    15    13    14   ar
    16    14    15    1
    17    14    16   ar
    18    16    17   ar
    19    17    18    1
    20    17    19   ar
    21     4     7    1
    22     8     7    1
    23    22    25    1
    24    25    26    2
    25    26    27    1
    26    27    28    1
    27    28    29    2
    28    29    30    1
    29    30    31    2
    30    30    32    1
    31    32    33    1
    32    33    34    2
    33     8     1    1
    34    34    25    1
    35     8     2    1
    36    33    28    1
    37    11     9    1
    38    19    12   ar
    39    23    24    1
@<TRIPOS>MOLECULE
*****
 34 39 0 0 0
SMALL
GASTEIGER

@<TRIPOS>ATOM
      1 C         139.6674  144.2633  162.6664 C.3     1  UNL1        0.0230
      2 C         139.4644  142.7898  162.4729 C.3     1  UNL1        0.0233
      3 C         139.2344  141.3123  162.5918 C.3     1  UNL1        0.0935
      4 N         139.0626  140.9854  164.0457 N.am    1  UNL1       -0.2795
      5 C         138.8111  139.6224  164.6192 C.2     1  UNL1        0.2255
      6 O         138.7111  138.4331  163.7105 O.2     1  UNL1       -0.2749
      7 C         139.1864  142.2609  164.8253 C.3     1  UNL1        0.0935
      8 C         139.4347  143.3760  163.8533 C.3     1  UNL1        0.0233
      9 C         138.6596  139.4486  166.1014 C.3     1  UNL1        0.0811
     10 C         137.9541  138.8295  167.2713 C.3     1  UNL1        0.0142
     11 C         139.1029  139.7668  167.4986 C.3     1  UNL1        0.0315
     12 C         140.0221  140.4916  168.4365 C.ar    1  UNL1       -0.0203
     13 C         141.1326  139.7505  169.1203 C.ar    1  UNL1        0.0072
     14 C         142.0518  140.4753  170.0583 C.ar    1  UNL1        0.0582
     15 CL        143.1623  139.7342  170.7420 Cl      1  UNL1       -0.0822
     16 C         141.8605  141.9412  170.3124 C.ar    1  UNL1        0.0228
     17 C         140.7499  142.6823  169.6286 C.ar    1  UNL1        0.0582
     18 CL        140.5585  144.1481  169.8828 Cl      1  UNL1       -0.0822
     19 C         139.8307  141.9575  168.6907 C.ar    1  UNL1        0.0072
     20 C         139.9188  145.6263  162.0929 C.3     1  UNL1        0.0898
     21 O         142.2355  144.6887  160.4335 O.2     1  UNL1       -0.2702
     22 C         141.0656  145.3597  159.7769 C.2     1  UNL1        0.2456
     23 N         139.9073  145.8285  160.6066 N.am    1  UNL1       -0.3009
     24 H         139.1394  146.2688  160.1757 H       1  UNL1        0.1497
     25 C         141.0540  145.5618  158.2906 C.2     1  UNL1        0.0525
     26 C         139.9171  146.2944  157.6422 C.2     1  UNL1       -0.0153
     27 C         139.9055  146.4965  156.1559 C.3     1  UNL1        0.0726
     28 C         141.0310  145.9660  155.3181 C.2     1  UNL1        0.0933
     29 N         141.2913  146.0121  153.8415 N.am    1  UNL1       -0.1431
     30 C         142.5891  145.3080  153.5774 C.2     1  UNL1        0.4298
     31 O         143.2323  145.1184  152.2356 O.2     1  UNL1       -0.2238
     32 O         143.1309  144.8268  154.8908 O.3     1  UNL1       -0.4079
     33 C         142.1680  145.2334  155.9665 C.2     1  UNL1        0.1618
     34 C         142.1795  145.0313  157.4528 C.2     1  UNL1        0.0429
@<TRIPOS>BOND
     1    21    22    2
     2    22    23   am
     3    23    20    1
     4     1    20    1
     5     1     2    1
     6     2     3    1
     7     3     4    1
     8     4     5   am
     9     5     6    2
    10     5     9    1
    11     9    10    1
    12    10    11    1
    13    11    12    1
    14    12    13   ar
    15    13    14   ar
    16    14    15    1
    17    14    16   ar
    18    16    17   ar
    19    17    18    1
    20    17    19   ar
    21     4     7    1
    22     8     7    1
    23    22    25    1
    24    25    26    2
    25    26    27    1
    26    27    28    1
    27    28    29    2
    28    29    30    1
    29    30    31    2
    30    30    32    1
    31    32    33    1
    32    33    34    2
    33     8     1    1
    34    34    25    1
    35     8     2    1
    36    33    28    1
    37    11     9    1
    38    19    12   ar
    39    23    24    1
@<TRIPOS>MOLECULE
*****
 34 39 0 0 0
SMALL
GASTEIGER

@<TRIPOS>ATOM
      1 C         143.0273  138.6749  161.5552 C.3     1  UNL1        0.0230
      2 C         141.8262  138.8839  160.6813 C.3     1  UNL1        0.0233
      3 C         140.7807  138.9097  159.6060 C.3     1  UNL1        0.0935
      4 N         141.2737  138.0766  158.4601 N.am    1  UNL1       -0.2795
      5 C         140.5446  137.8278  157.1731 C.2     1  UNL1        0.2255
      6 O         139.1934  138.4387  156.9464 O.2     1  UNL1       -0.2749
      7 C         142.6239  137.5360  158.8272 C.3     1  UNL1        0.0935
      8 C         142.9653  138.0350  160.2000 C.3     1  UNL1        0.0233
      9 C         141.1665  136.9682  156.1128 C.3     1  UNL1        0.0811
     10 C         141.5890  136.7646  154.6880 C.3     1  UNL1        0.0142
     11 C         141.8211  135.6830  155.7010 C.3     1  UNL1        0.0315
     12 C         142.3330  134.3165  156.0481 C.ar    1  UNL1       -0.0203
     13 C         141.6505  133.0984  155.5001 C.ar    1  UNL1        0.0072
     14 C         142.1624  131.7318  155.8471 C.ar    1  UNL1        0.0582
     15 CL        141.4799  130.5137  155.2991 Cl      1  UNL1       -0.0822
     16 C         143.3568  131.5833  156.7423 C.ar    1  UNL1        0.0228
     17 C         144.0394  132.8015  157.2904 C.ar    1  UNL1        0.0582
     18 CL        145.2338  132.6531  158.1855 Cl      1  UNL1       -0.0822
     19 C         143.5274  134.1680  156.9433 C.ar    1  UNL1        0.0072
     20 C         143.7564  138.9237  162.8422 C.3     1  UNL1        0.0898
     21 O         144.3675  141.3950  164.4294 O.2     1  UNL1       -0.2702
     22 C         143.2922  140.4554  164.8888 C.2     1  UNL1        0.2456
     23 N         142.9867  139.2198  164.0952 N.am    1  UNL1       -0.3009
     24 H         142.2810  138.6031  164.3967 H       1  UNL1        0.1497
     25 C         142.5225  140.7515  166.1418 C.2     1  UNL1        0.0525
     26 C         142.9333  141.8945  167.0219 C.2     1  UNL1       -0.0153
     27 C         142.1636  142.1906  168.2748 C.3     1  UNL1        0.0726
     28 C         140.9831  141.3436  168.6476 C.2     1  UNL1        0.0933
     29 N         140.0392  141.3944  169.8124 N.am    1  UNL1       -0.1431
     30 C         139.0450  140.2827  169.6520 C.2     1  UNL1        0.4298
     31 O         137.9190  139.9645  170.5907 O.2     1  UNL1       -0.2238
     32 O         139.3745  139.5449  168.3882 O.3     1  UNL1       -0.4079
     33 C         140.5723  140.2006  167.7675 C.2     1  UNL1        0.1618
     34 C         141.3420  139.9045  166.5146 C.2     1  UNL1        0.0429
@<TRIPOS>BOND
     1    21    22    2
     2    22    23   am
     3    23    20    1
     4     1    20    1
     5     1     2    1
     6     2     3    1
     7     3     4    1
     8     4     5   am
     9     5     6    2
    10     5     9    1
    11     9    10    1
    12    10    11    1
    13    11    12    1
    14    12    13   ar
    15    13    14   ar
    16    14    15    1
    17    14    16   ar
    18    16    17   ar
    19    17    18    1
    20    17    19   ar
    21     4     7    1
    22     8     7    1
    23    22    25    1
    24    25    26    2
    25    26    27    1
    26    27    28    1
    27    28    29    2
    28    29    30    1
    29    30    31    2
    30    30    32    1
    31    32    33    1
    32    33    34    2
    33     8     1    1
    34    34    25    1
    35     8     2    1
    36    33    28    1
    37    11     9    1
    38    19    12   ar
    39    23    24    1
@<TRIPOS>MOLECULE
*****
 34 39 0 0 0
SMALL
GASTEIGER

@<TRIPOS>ATOM
      1 C         142.8843  138.5594  159.0973 C.3     1  UNL1        0.0230
      2 C         143.6430  139.5540  159.9250 C.3     1  UNL1        0.0233
      3 C         144.3123  140.3676  160.9927 C.3     1  UNL1        0.0935
      4 N         144.0432  139.7100  162.3138 N.am    1  UNL1       -0.2795
      5 C         144.5250  140.1885  163.6512 C.2     1  UNL1        0.2255
      6 O         145.3573  141.4328  163.7474 O.2     1  UNL1       -0.2749
      7 C         143.2075  138.4900  162.0625 C.3     1  UNL1        0.0935
      8 C         142.9602  138.3935  160.5861 C.3     1  UNL1        0.0233
      9 C         144.1747  139.4228  164.8925 C.3     1  UNL1        0.0811
     10 C         144.5183  138.3835  165.9181 C.3     1  UNL1        0.0142
     11 C         143.2243  139.1357  166.0169 C.3     1  UNL1        0.0315
     12 C         141.9285  139.4042  166.7231 C.ar    1  UNL1       -0.0203
     13 C         141.9288  139.7681  168.1782 C.ar    1  UNL1        0.0072
     14 C         140.6330  140.0367  168.8845 C.ar    1  UNL1        0.0582
     15 CL        140.6333  140.4006  170.3397 Cl      1  UNL1       -0.0822
     16 C         139.3368  139.9412  168.1356 C.ar    1  UNL1        0.0228
     17 C         139.3365  139.5773  166.6804 C.ar    1  UNL1        0.0582
     18 CL        138.0404  139.4818  165.9314 Cl      1  UNL1       -0.0822
     19 C         140.6323  139.3088  165.9742 C.ar    1  UNL1        0.0072
     20 C         142.4024  138.0809  157.7598 C.3     1  UNL1        0.0898
     21 O         144.3138  136.6257  155.9628 O.2     1  UNL1       -0.2702
     22 C         143.1807  135.8853  156.6093 C.2     1  UNL1        0.2456
     23 N         142.2250  136.6129  157.5078 N.am    1  UNL1       -0.3009
     24 H         141.4813  136.1269  157.9320 H       1  UNL1        0.1497
     25 C         143.0033  134.4173  156.3572 C.2     1  UNL1        0.0525
     26 C         144.0538  133.4464  156.8087 C.2     1  UNL1       -0.0153
     27 C         143.8763  131.9785  156.5566 C.3     1  UNL1        0.0726
     28 C         142.6484  131.4814  155.8530 C.2     1  UNL1        0.0933
     29 N         142.2014  130.1023  155.4678 N.am    1  UNL1       -0.1431
     30 C         140.8746  130.2208  154.7782 C.2     1  UNL1        0.4298
     31 O         140.0632  129.0862  154.2264 O.2     1  UNL1       -0.2238
     32 O         140.5016  131.6732  154.7372 O.3     1  UNL1       -0.4079
     33 C         141.5979  132.4522  155.4015 C.2     1  UNL1        0.1618
     34 C         141.7753  133.9201  155.6536 C.2     1  UNL1        0.0429
@<TRIPOS>BOND
     1    21    22    2
     2    22    23   am
     3    23    20    1
     4     1    20    1
     5     1     2    1
     6     2     3    1
     7     3     4    1
     8     4     5   am
     9     5     6    2
    10     5     9    1
    11     9    10    1
    12    10    11    1
    13    11    12    1
    14    12    13   ar
    15    13    14   ar
    16    14    15    1
    17    14    16   ar
    18    16    17   ar
    19    17    18    1
    20    17    19   ar
    21     4     7    1
    22     8     7    1
    23    22    25    1
    24    25    26    2
    25    26    27    1
    26    27    28    1
    27    28    29    2
    28    29    30    1
    29    30    31    2
    30    30    32    1
    31    32    33    1
    32    33    34    2
    33     8     1    1
    34    34    25    1
    35     8     2    1
    36    33    28    1
    37    11     9    1
    38    19    12   ar
    39    23    24    1
@<TRIPOS>MOLECULE
*****
 34 39 0 0 0
SMALL
GASTEIGER

@<TRIPOS>ATOM
      1 C         140.7763  145.1667  158.5316 C.3     1  UNL1        0.0230
      2 C         140.1974  145.3471  159.9036 C.3     1  UNL1        0.0233
      3 C         139.8866  145.3953  161.3702 C.3     1  UNL1        0.0935
      4 N         141.0483  144.8010  162.1100 N.am    1  UNL1       -0.2795
      5 C         141.1614  144.6489  163.5979 C.2     1  UNL1        0.2255
      6 O         140.0455  145.1134  164.4863 O.2     1  UNL1       -0.2749
      7 C         142.0770  144.3854  161.1006 C.3     1  UNL1        0.0935
      8 C         141.5511  144.7229  159.7369 C.3     1  UNL1        0.0233
      9 C         142.3903  144.0323  164.1976 C.3     1  UNL1        0.0811
     10 C         143.8833  143.9779  164.3313 C.3     1  UNL1        0.0142
     11 C         143.0258  143.0187  165.1025 C.3     1  UNL1        0.0315
     12 C         142.8977  141.8799  166.0702 C.ar    1  UNL1       -0.0203
     13 C         142.4524  142.1391  167.4788 C.ar    1  UNL1        0.0072
     14 C         142.3242  141.0002  168.4466 C.ar    1  UNL1        0.0582
     15 CL        141.8789  141.2595  169.8553 Cl      1  UNL1       -0.0822
     16 C         142.6413  139.6020  168.0056 C.ar    1  UNL1        0.0228
     17 C         143.0866  139.3428  166.5968 C.ar    1  UNL1        0.0582
     18 CL        143.4038  137.9446  166.1558 Cl      1  UNL1       -0.0822
     19 C         143.2148  140.4817  165.6291 C.ar    1  UNL1        0.0072
     20 C         140.6632  145.3188  157.0437 C.3     1  UNL1        0.0898
     21 O         138.3601  146.0793  155.2780 O.2     1  UNL1       -0.2702
     22 C         139.4557  147.0674  155.5489 C.2     1  UNL1        0.2456
     23 N         140.6072  146.6872  156.4317 N.am    1  UNL1       -0.3009
     24 H         141.3263  147.3357  156.6095 H       1  UNL1        0.1497
     25 C         139.3997  148.4358  154.9369 C.2     1  UNL1        0.0525
     26 C         139.9598  148.6673  153.5648 C.2     1  UNL1       -0.0153
     27 C         139.9037  150.0356  152.9530 C.3     1  UNL1        0.0726
     28 C         139.2876  151.1725  153.7131 C.2     1  UNL1        0.0933
     29 N         139.0916  152.6197  153.3705 N.am    1  UNL1       -0.1431
     30 C         138.4104  153.2826  154.5309 C.2     1  UNL1        0.4298
     31 O         138.0223  154.7290  154.6165 O.2     1  UNL1       -0.2238
     32 O         138.1854  152.2451  155.5906 O.3     1  UNL1       -0.4079
     33 C         138.7275  150.9411  155.0852 C.2     1  UNL1        0.1618
     34 C         138.7836  149.5727  155.6971 C.2     1  UNL1        0.0429
@<TRIPOS>BOND
     1    21    22    2
     2    22    23   am
     3    23    20    1
     4     1    20    1
     5     1     2    1
     6     2     3    1
     7     3     4    1
     8     4     5   am
     9     5     6    2
    10     5     9    1
    11     9    10    1
    12    10    11    1
    13    11    12    1
    14    12    13   ar
    15    13    14   ar
    16    14    15    1
    17    14    16   ar
    18    16    17   ar
    19    17    18    1
    20    17    19   ar
    21     4     7    1
    22     8     7    1
    23    22    25    1
    24    25    26    2
    25    26    27    1
    26    27    28    1
    27    28    29    2
    28    29    30    1
    29    30    31    2
    30    30    32    1
    31    32    33    1
    32    33    34    2
    33     8     1    1
    34    34    25    1
    35     8     2    1
    36    33    28    1
    37    11     9    1
    38    19    12   ar
    39    23    24    1
