@<TRIPOS>MOLECULE
*****
 33 37 0 0 0
SMALL
GASTEIGER

@<TRIPOS>ATOM
      1 C         141.6326  140.7921  168.6391 C.3     1  UNL1        0.0704
      2 C         143.0675  141.2084  168.7731 C.3     1  UNL1        0.0087
      3 C         143.4699  142.1796  169.8430 C.3     1  UNL1        0.0005
      4 C         142.4374  142.7347  170.7790 C.3     1  UNL1        0.0000
      5 C         141.0025  142.3184  170.6450 C.3     1  UNL1        0.0005
      6 C         140.6001  141.3471  169.5750 C.3     1  UNL1        0.0095
      7 C         139.2723  140.7567  169.2032 C.3     1  UNL1        0.0162
      8 C         139.4841  139.8368  168.0375 C.3     1  UNL1        0.0544
      9 C         140.9428  139.8587  167.6889 C.3     1  UNL1        0.0243
     10 O         143.3476  138.9440  168.0120 O.2     1  UNL1       -0.2749
     11 C         142.5486  140.1564  167.6357 C.2     1  UNL1        0.2250
     12 N         142.6655  140.7331  166.2559 N.am    1  UNL1       -0.2750
     13 C         143.5814  140.0974  165.2524 C.3     1  UNL1        0.1000
     14 C         143.6983  140.6741  163.8727 C.3     1  UNL1        0.0670
     15 C         142.8992  141.8865  163.4964 C.ar    1  UNL1        0.0583
     16 N         143.0161  142.4632  162.1166 N.ar    1  UNL1       -0.2484
     17 C         142.2170  143.6756  161.7403 C.ar    1  UNL1        0.1023
     18 C         141.3011  144.3113  162.7438 C.ar    1  UNL1        0.0902
     19 C         141.1842  143.7346  164.1235 C.ar    1  UNL1        0.0040
     20 C         141.9833  142.5222  164.4998 C.ar    1  UNL1        0.0113
     21 C         141.8664  141.9455  165.8796 C.3     1  UNL1        0.1213
     22 C         140.5020  145.5237  162.3675 C.3     1  UNL1        0.4200
     23 F         139.7029  146.7361  161.9912 F       1  UNL1       -0.1658
     24 F         141.1783  145.5540  161.0290 F       1  UNL1       -0.1658
     25 F         139.8257  145.4934  163.7061 F       1  UNL1       -0.1658
     26 N         138.4234  139.0357  167.3424 N.3     1  UNL1       -0.2995
     27 H         137.5258  139.4357  167.6158 H       1  UNL1        0.1232
     28 C         138.4166  138.9392  165.8456 C.3     1  UNL1        0.0590
     29 C         138.7729  137.6453  165.1758 C.3     1  UNL1        0.0478
     30 C         138.7661  137.5487  163.6788 C.3     1  UNL1        0.1435
     31 O         138.4030  138.7463  162.8518 O.3     1  UNL1       -0.3537
     32 C         138.0468  140.0402  163.5216 C.3     1  UNL1        0.1435
     33 C         138.0535  140.1367  165.0184 C.3     1  UNL1        0.0478
@<TRIPOS>BOND
     1    10    11    2
     2    11    12   am
     3    12    13    1
     4    13    14    1
     5    14    15    1
     6    15    16   ar
     7    16    17   ar
     8    17    18   ar
     9    18    22    1
    10    22    23    1
    11    22    24    1
    12    22    25    1
    13    18    19   ar
    14    19    20   ar
    15    20    21    1
    16     1    11    1
    17     1     2    1
    18     2     3    1
    19     3     4    1
    20     4     5    1
    21     6     5    1
    22     6     7    1
    23     7     8    1
    24     8    26    1
    25    26    28    1
    26    28    29    1
    27    29    30    1
    28    30    31    1
    29    31    32    1
    30    32    33    1
    31     8     9    1
    32    21    12    1
    33     6     1    1
    34    33    28    1
    35    20    15   ar
    36     9     1    1
    37    26    27    1
@<TRIPOS>MOLECULE
*****
 33 37 0 0 0
SMALL
GASTEIGER

@<TRIPOS>ATOM
      1 C         140.9124  139.9333  167.6174 C.3     1  UNL1        0.0704
      2 C         142.0626  140.4770  168.4121 C.3     1  UNL1        0.0087
      3 C         141.8262  141.0493  169.7783 C.3     1  UNL1        0.0005
      4 C         140.4396  141.0779  170.3499 C.3     1  UNL1        0.0000
      5 C         139.2894  140.5343  169.5552 C.3     1  UNL1        0.0005
      6 C         139.5259  139.9620  168.1889 C.3     1  UNL1        0.0095
      7 C         138.5956  139.3581  167.1789 C.3     1  UNL1        0.0162
      8 C         139.4073  138.9562  165.9832 C.3     1  UNL1        0.0544
      9 C         140.8391  139.3118  166.2542 C.3     1  UNL1        0.0243
     10 O         143.2509  138.8290  167.3693 O.2     1  UNL1       -0.2749
     11 C         142.2362  139.8375  166.9186 C.2     1  UNL1        0.2250
     12 N         142.5454  140.7503  165.7691 N.am    1  UNL1       -0.2750
     13 C         143.8691  140.6545  165.0703 C.3     1  UNL1        0.1000
     14 C         144.1782  141.5673  163.9209 C.3     1  UNL1        0.0670
     15 C         143.1635  142.5759  163.4702 C.ar    1  UNL1        0.0583
     16 N         143.4726  143.4887  162.3207 N.ar    1  UNL1       -0.2484
     17 C         142.4579  144.4973  161.8700 C.ar    1  UNL1        0.1023
     18 C         141.1341  144.5930  162.5688 C.ar    1  UNL1        0.0902
     19 C         140.8250  143.6803  163.7183 C.ar    1  UNL1        0.0040
     20 C         141.8397  142.6717  164.1690 C.ar    1  UNL1        0.0113
     21 C         141.5306  141.7589  165.3184 C.3     1  UNL1        0.1213
     22 C         140.1193  145.6016  162.1182 C.3     1  UNL1        0.4200
     23 F         139.1046  146.6102  161.6675 F       1  UNL1       -0.1658
     24 F         139.4034  145.4672  163.4294 F       1  UNL1       -0.1658
     25 F         140.8353  145.7360  160.8069 F       1  UNL1       -0.1658
     26 N         138.8797  138.3119  164.7356 N.3     1  UNL1       -0.2995
     27 H         138.1058  137.7111  165.0191 H       1  UNL1        0.1232
     28 C         138.3766  139.1627  163.6073 C.3     1  UNL1        0.0590
     29 C         138.0889  140.6171  163.8352 C.3     1  UNL1        0.0478
     30 C         137.5857  141.4679  162.7069 C.3     1  UNL1        0.1435
     31 O         137.3704  140.8643  161.3507 O.3     1  UNL1       -0.3537
     32 C         137.6581  139.4099  161.1228 C.3     1  UNL1        0.1435
     33 C         138.1612  138.5591  162.2511 C.3     1  UNL1        0.0478
@<TRIPOS>BOND
     1    10    11    2
     2    11    12   am
     3    12    13    1
     4    13    14    1
     5    14    15    1
     6    15    16   ar
     7    16    17   ar
     8    17    18   ar
     9    18    22    1
    10    22    23    1
    11    22    24    1
    12    22    25    1
    13    18    19   ar
    14    19    20   ar
    15    20    21    1
    16     1    11    1
    17     1     2    1
    18     2     3    1
    19     3     4    1
    20     4     5    1
    21     6     5    1
    22     6     7    1
    23     7     8    1
    24     8    26    1
    25    26    28    1
    26    28    29    1
    27    29    30    1
    28    30    31    1
    29    31    32    1
    30    32    33    1
    31     8     9    1
    32    21    12    1
    33     6     1    1
    34    33    28    1
    35    20    15   ar
    36     9     1    1
    37    26    27    1
@<TRIPOS>MOLECULE
*****
 33 37 0 0 0
SMALL
GASTEIGER

@<TRIPOS>ATOM
      1 C         140.5013  138.8642  165.8834 C.3     1  UNL1        0.0704
      2 C         140.6591  139.7000  167.1190 C.3     1  UNL1        0.0087
      3 C         139.4834  139.9358  168.0202 C.3     1  UNL1        0.0005
      4 C         138.1498  139.3358  167.6858 C.3     1  UNL1        0.0000
      5 C         137.9920  138.5001  166.4502 C.3     1  UNL1        0.0005
      6 C         139.1678  138.2643  165.5490 C.3     1  UNL1        0.0095
      7 C         139.3146  137.4905  164.2724 C.3     1  UNL1        0.0162
      8 C         140.7389  137.6123  163.8178 C.3     1  UNL1        0.0544
      9 C         141.4723  138.4613  164.8135 C.3     1  UNL1        0.0243
     10 O         142.8931  138.5952  166.8617 O.2     1  UNL1       -0.2749
     11 C         141.8889  139.3962  166.0871 C.2     1  UNL1        0.2250
     12 N         142.2724  140.7293  165.5161 N.am    1  UNL1       -0.2750
     13 C         143.6600  141.2613  165.7197 C.3     1  UNL1        0.1000
     14 C         144.0434  142.5943  165.1487 C.3     1  UNL1        0.0670
     15 C         143.0393  143.3953  164.3741 C.ar    1  UNL1        0.0583
     16 N         143.4228  144.7283  163.8032 N.ar    1  UNL1       -0.2484
     17 C         142.4186  145.5294  163.0285 C.ar    1  UNL1        0.1023
     18 C         141.0309  144.9973  162.8249 C.ar    1  UNL1        0.0902
     19 C         140.6475  143.6643  163.3959 C.ar    1  UNL1        0.0040
     20 C         141.6517  142.8633  164.1705 C.ar    1  UNL1        0.0113
     21 C         141.2682  141.5303  164.7415 C.3     1  UNL1        0.1213
     22 C         140.0268  145.7983  162.0503 C.3     1  UNL1        0.4200
     23 F         139.0226  146.5993  161.2757 F       1  UNL1       -0.1658
     24 F         140.9869  145.8911  160.9016 F       1  UNL1       -0.1658
     25 F         139.0666  145.7055  163.1991 F       1  UNL1       -0.1658
     26 N         141.3266  136.9936  162.5841 N.3     1  UNL1       -0.2995
     27 H         140.5646  136.5166  162.1023 H       1  UNL1        0.1232
     28 C         142.0103  137.8565  161.5653 C.3     1  UNL1        0.0590
     29 C         141.2200  138.4614  160.4431 C.3     1  UNL1        0.0478
     30 C         141.9036  139.3243  159.4242 C.3     1  UNL1        0.1435
     31 O         143.3777  139.5822  159.5276 O.3     1  UNL1       -0.3537
     32 C         144.1680  138.9772  160.6498 C.3     1  UNL1        0.1435
     33 C         143.4843  138.1144  161.6686 C.3     1  UNL1        0.0478
@<TRIPOS>BOND
     1    10    11    2
     2    11    12   am
     3    12    13    1
     4    13    14    1
     5    14    15    1
     6    15    16   ar
     7    16    17   ar
     8    17    18   ar
     9    18    22    1
    10    22    23    1
    11    22    24    1
    12    22    25    1
    13    18    19   ar
    14    19    20   ar
    15    20    21    1
    16     1    11    1
    17     1     2    1
    18     2     3    1
    19     3     4    1
    20     4     5    1
    21     6     5    1
    22     6     7    1
    23     7     8    1
    24     8    26    1
    25    26    28    1
    26    28    29    1
    27    29    30    1
    28    30    31    1
    29    31    32    1
    30    32    33    1
    31     8     9    1
    32    21    12    1
    33     6     1    1
    34    33    28    1
    35    20    15   ar
    36     9     1    1
    37    26    27    1
@<TRIPOS>MOLECULE
*****
 33 37 0 0 0
SMALL
GASTEIGER

@<TRIPOS>ATOM
      1 C         139.3221  142.0776  163.0276 C.3     1  UNL1        0.0704
      2 C         137.9580  142.4540  163.5252 C.3     1  UNL1        0.0087
      3 C         137.4304  143.8386  163.2921 C.3     1  UNL1        0.0005
      4 C         138.2668  144.8469  162.5615 C.3     1  UNL1        0.0000
      5 C         139.6310  144.4706  162.0640 C.3     1  UNL1        0.0005
      6 C         140.1586  143.0858  162.2970 C.3     1  UNL1        0.0095
      7 C         141.4559  142.4304  161.9260 C.3     1  UNL1        0.0162
      8 C         141.4212  141.0171  162.4273 C.3     1  UNL1        0.0544
      9 C         140.1025  140.7990  163.1081 C.3     1  UNL1        0.0243
     10 O         137.5960  140.1360  163.0035 O.2     1  UNL1       -0.2749
     11 C         138.6045  140.9686  163.7382 C.2     1  UNL1        0.2250
     12 N         138.8951  140.6922  165.1836 N.am    1  UNL1       -0.2750
     13 C         138.1775  139.5832  165.8942 C.3     1  UNL1        0.1000
     14 C         138.4682  139.3068  167.3396 C.3     1  UNL1        0.0670
     15 C         139.4766  140.1394  168.0743 C.ar    1  UNL1        0.0583
     16 N         139.7673  139.8630  169.5197 N.ar    1  UNL1       -0.2484
     17 C         140.7757  140.6956  170.2545 C.ar    1  UNL1        0.1023
     18 C         141.4934  141.8047  169.5438 C.ar    1  UNL1        0.0902
     19 C         141.2027  142.0810  168.0985 C.ar    1  UNL1        0.0040
     20 C         140.1943  141.2484  167.3637 C.ar    1  UNL1        0.0113
     21 C         139.9036  141.5248  165.9184 C.3     1  UNL1        0.1213
     22 C         142.5018  142.6373  170.2785 C.3     1  UNL1        0.4200
     23 F         143.5102  143.4699  171.0133 F       1  UNL1       -0.1658
     24 F         141.6470  143.8528  170.0743 F       1  UNL1       -0.1658
     25 F         143.3566  141.4217  170.4828 F       1  UNL1       -0.1658
     26 N         142.5133  140.0004  162.2746 N.3     1  UNL1       -0.2995
     27 H         143.2316  140.4256  161.6884 H       1  UNL1        0.1232
     28 C         143.2093  139.4593  163.4882 C.3     1  UNL1        0.0590
     29 C         142.4228  138.7482  164.5492 C.3     1  UNL1        0.0478
     30 C         143.1188  138.2071  165.7629 C.3     1  UNL1        0.1435
     31 O         144.6013  138.3772  165.9154 O.3     1  UNL1       -0.3537
     32 C         145.3878  139.0882  164.8545 C.3     1  UNL1        0.1435
     33 C         144.6918  139.6293  163.6409 C.3     1  UNL1        0.0478
@<TRIPOS>BOND
     1    10    11    2
     2    11    12   am
     3    12    13    1
     4    13    14    1
     5    14    15    1
     6    15    16   ar
     7    16    17   ar
     8    17    18   ar
     9    18    22    1
    10    22    23    1
    11    22    24    1
    12    22    25    1
    13    18    19   ar
    14    19    20   ar
    15    20    21    1
    16     1    11    1
    17     1     2    1
    18     2     3    1
    19     3     4    1
    20     4     5    1
    21     6     5    1
    22     6     7    1
    23     7     8    1
    24     8    26    1
    25    26    28    1
    26    28    29    1
    27    29    30    1
    28    30    31    1
    29    31    32    1
    30    32    33    1
    31     8     9    1
    32    21    12    1
    33     6     1    1
    34    33    28    1
    35    20    15   ar
    36     9     1    1
    37    26    27    1
@<TRIPOS>MOLECULE
*****
 33 37 0 0 0
SMALL
GASTEIGER

@<TRIPOS>ATOM
      1 C         142.8147  140.8387  162.3759 C.3     1  UNL1        0.0704
      2 C         144.2981  140.7678  162.5872 C.3     1  UNL1        0.0087
      3 C         145.1929  141.8064  161.9783 C.3     1  UNL1        0.0005
      4 C         144.6043  142.9159  161.1581 C.3     1  UNL1        0.0000
      5 C         143.1209  142.9868  160.9468 C.3     1  UNL1        0.0005
      6 C         142.2261  141.9481  161.5557 C.3     1  UNL1        0.0095
      7 C         140.7384  141.7596  161.5205 C.3     1  UNL1        0.0162
      8 C         140.4075  140.5336  162.3190 C.3     1  UNL1        0.0544
      9 C         141.6908  139.9645  162.8476 C.3     1  UNL1        0.0243
     10 O         143.8235  138.4517  162.5617 O.2     1  UNL1       -0.2749
     11 C         143.2566  139.6769  163.2155 C.2     1  UNL1        0.2250
     12 N         143.1315  139.7403  164.7090 N.am    1  UNL1       -0.2750
     13 C         143.5733  138.5786  165.5486 C.3     1  UNL1        0.1000
     14 C         143.4482  138.6420  167.0420 C.3     1  UNL1        0.0670
     15 C         142.8813  139.8673  167.6958 C.ar    1  UNL1        0.0583
     16 N         142.7562  139.9307  169.1893 N.ar    1  UNL1       -0.2484
     17 C         142.1893  141.1559  169.8430 C.ar    1  UNL1        0.1023
     18 C         141.7474  142.3177  169.0033 C.ar    1  UNL1        0.0902
     19 C         141.8725  142.2542  167.5099 C.ar    1  UNL1        0.0040
     20 C         142.4394  141.0290  166.8561 C.ar    1  UNL1        0.0113
     21 C         142.5645  140.9655  165.3627 C.3     1  UNL1        0.1213
     22 C         141.1805  143.5429  169.6571 C.3     1  UNL1        0.4200
     23 F         140.6136  144.7682  170.3108 F       1  UNL1       -0.1658
     24 F         142.3547  143.5888  170.5893 F       1  UNL1       -0.1658
     25 F         140.0063  143.4971  168.7248 F       1  UNL1       -0.1658
     26 N         139.0346  139.9749  162.5485 N.3     1  UNL1       -0.2995
     27 H         138.8650  139.2961  161.8063 H       1  UNL1        0.1232
     28 C         138.7101  139.2907  163.8433 C.3     1  UNL1        0.0590
     29 C         138.2377  140.0943  165.0184 C.3     1  UNL1        0.0478
     30 C         137.9132  139.4101  166.3133 C.3     1  UNL1        0.1435
     31 O         138.0612  137.9223  166.4330 O.3     1  UNL1       -0.3537
     32 C         138.5337  137.1186  165.2579 C.3     1  UNL1        0.1435
     33 C         138.8581  137.8028  163.9631 C.3     1  UNL1        0.0478
@<TRIPOS>BOND
     1    10    11    2
     2    11    12   am
     3    12    13    1
     4    13    14    1
     5    14    15    1
     6    15    16   ar
     7    16    17   ar
     8    17    18   ar
     9    18    22    1
    10    22    23    1
    11    22    24    1
    12    22    25    1
    13    18    19   ar
    14    19    20   ar
    15    20    21    1
    16     1    11    1
    17     1     2    1
    18     2     3    1
    19     3     4    1
    20     4     5    1
    21     6     5    1
    22     6     7    1
    23     7     8    1
    24     8    26    1
    25    26    28    1
    26    28    29    1
    27    29    30    1
    28    30    31    1
    29    31    32    1
    30    32    33    1
    31     8     9    1
    32    21    12    1
    33     6     1    1
    34    33    28    1
    35    20    15   ar
    36     9     1    1
    37    26    27    1
@<TRIPOS>MOLECULE
*****
 33 37 0 0 0
SMALL
GASTEIGER

@<TRIPOS>ATOM
      1 C         139.2831  141.8637  162.8724 C.3     1  UNL1        0.0704
      2 C         138.0997  142.2925  163.6883 C.3     1  UNL1        0.0087
      3 C         137.6874  143.7345  163.7112 C.3     1  UNL1        0.0005
      4 C         138.4584  144.7478  162.9182 C.3     1  UNL1        0.0000
      5 C         139.6418  144.3190  162.1022 C.3     1  UNL1        0.0005
      6 C         140.0542  142.8769  162.0793 C.3     1  UNL1        0.0095
      7 C         141.1686  142.1628  161.3737 C.3     1  UNL1        0.0162
      8 C         141.0864  140.7082  161.7306 C.3     1  UNL1        0.0544
      9 C         139.9211  140.5234  162.6568 C.3     1  UNL1        0.0243
     10 O         137.6546  139.8395  162.8924 O.2     1  UNL1       -0.2749
     11 C         138.6126  140.7431  163.6104 C.2     1  UNL1        0.2250
     12 N         138.9001  140.5262  165.0666 N.am    1  UNL1       -0.2750
     13 C         138.2296  139.4057  165.8046 C.3     1  UNL1        0.1000
     14 C         138.5171  139.1888  167.2607 C.3     1  UNL1        0.0670
     15 C         139.4751  140.0925  167.9788 C.ar    1  UNL1        0.0583
     16 N         139.7626  139.8756  169.4350 N.ar    1  UNL1       -0.2484
     17 C         140.7206  140.7793  170.1530 C.ar    1  UNL1        0.1023
     18 C         141.3911  141.8999  169.4149 C.ar    1  UNL1        0.0902
     19 C         141.1036  142.1168  167.9588 C.ar    1  UNL1        0.0040
     20 C         140.1456  141.2131  167.2407 C.ar    1  UNL1        0.0113
     21 C         139.8581  141.4299  165.7846 C.3     1  UNL1        0.1213
     22 C         142.3491  142.8036  170.1329 C.3     1  UNL1        0.4200
     23 F         143.3070  143.7073  170.8510 F       1  UNL1       -0.1658
     24 F         141.3756  143.9376  170.0045 F       1  UNL1       -0.1658
     25 F         143.3225  141.6696  170.2613 F       1  UNL1       -0.1658
     26 N         142.0077  139.6281  161.2463 N.3     1  UNL1       -0.2995
     27 H         142.0176  138.9050  161.9657 H       1  UNL1        0.1232
     28 C         141.7346  138.9381  159.9427 C.3     1  UNL1        0.0590
     29 C         140.3521  138.9537  159.3611 C.3     1  UNL1        0.0478
     30 C         140.0789  138.2637  158.0574 C.3     1  UNL1        0.1435
     31 O         141.1884  137.5582  157.3355 O.3     1  UNL1       -0.3537
     32 C         142.5709  137.5425  157.9171 C.3     1  UNL1        0.1435
     33 C         142.8440  138.2325  159.2207 C.3     1  UNL1        0.0478
@<TRIPOS>BOND
     1    10    11    2
     2    11    12   am
     3    12    13    1
     4    13    14    1
     5    14    15    1
     6    15    16   ar
     7    16    17   ar
     8    17    18   ar
     9    18    22    1
    10    22    23    1
    11    22    24    1
    12    22    25    1
    13    18    19   ar
    14    19    20   ar
    15    20    21    1
    16     1    11    1
    17     1     2    1
    18     2     3    1
    19     3     4    1
    20     4     5    1
    21     6     5    1
    22     6     7    1
    23     7     8    1
    24     8    26    1
    25    26    28    1
    26    28    29    1
    27    29    30    1
    28    30    31    1
    29    31    32    1
    30    32    33    1
    31     8     9    1
    32    21    12    1
    33     6     1    1
    34    33    28    1
    35    20    15   ar
    36     9     1    1
    37    26    27    1
@<TRIPOS>MOLECULE
*****
 33 37 0 0 0
SMALL
GASTEIGER

@<TRIPOS>ATOM
      1 C         140.4561  139.3570  165.0495 C.3     1  UNL1        0.0704
      2 C         139.1924  139.4745  164.2500 C.3     1  UNL1        0.0087
      3 C         138.9208  138.5134  163.1309 C.3     1  UNL1        0.0005
      4 C         139.9130  137.4347  162.8112 C.3     1  UNL1        0.0000
      5 C         141.1767  137.3172  163.6107 C.3     1  UNL1        0.0005
      6 C         141.4483  138.2784  164.7298 C.3     1  UNL1        0.0095
      7 C         142.5980  138.4083  165.6845 C.3     1  UNL1        0.0162
      8 C         142.3163  139.5673  166.5942 C.3     1  UNL1        0.0544
      9 C         140.9926  140.1536  166.2017 C.3     1  UNL1        0.0243
     10 O         138.7418  140.3472  166.7318 O.2     1  UNL1       -0.2749
     11 C         139.5621  140.4806  165.4831 C.2     1  UNL1        0.2250
     12 N         139.4883  141.7378  164.6681 N.am    1  UNL1       -0.2750
     13 C         138.5942  142.8614  165.1017 C.3     1  UNL1        0.1000
     14 C         138.5205  144.1184  164.2867 C.3     1  UNL1        0.0670
     15 C         139.3408  144.2519  163.0380 C.ar    1  UNL1        0.0583
     16 N         139.2670  145.5090  162.2229 N.ar    1  UNL1       -0.2484
     17 C         140.0873  145.6424  160.9742 C.ar    1  UNL1        0.1023
     18 C         140.9814  144.5187  160.5405 C.ar    1  UNL1        0.0902
     19 C         141.0552  143.2617  161.3556 C.ar    1  UNL1        0.0040
     20 C         140.2349  143.1283  162.6043 C.ar    1  UNL1        0.0113
     21 C         140.3086  141.8712  163.4194 C.3     1  UNL1        0.1213
     22 C         141.8018  144.6522  159.2918 C.3     1  UNL1        0.4200
     23 F         142.6221  144.7856  158.0431 F       1  UNL1       -0.1658
     24 F         140.9135  145.7681  158.8275 F       1  UNL1       -0.1658
     25 F         142.6901  143.5362  159.7561 F       1  UNL1       -0.1658
     26 N         143.2028  140.0544  167.7019 N.3     1  UNL1       -0.2995
     27 H         143.8990  140.6654  167.2748 H       1  UNL1        0.1232
     28 C         142.6140  140.8096  168.8565 C.3     1  UNL1        0.0590
     29 C         143.0149  142.2336  169.1039 C.3     1  UNL1        0.0478
     30 C         142.4261  142.9888  170.2585 C.3     1  UNL1        0.1435
     31 O         141.4365  142.3198  171.1658 O.3     1  UNL1       -0.3537
     32 C         141.0357  140.8957  170.9184 C.3     1  UNL1        0.1435
     33 C         141.6244  140.1406  169.7638 C.3     1  UNL1        0.0478
@<TRIPOS>BOND
     1    10    11    2
     2    11    12   am
     3    12    13    1
     4    13    14    1
     5    14    15    1
     6    15    16   ar
     7    16    17   ar
     8    17    18   ar
     9    18    22    1
    10    22    23    1
    11    22    24    1
    12    22    25    1
    13    18    19   ar
    14    19    20   ar
    15    20    21    1
    16     1    11    1
    17     1     2    1
    18     2     3    1
    19     3     4    1
    20     4     5    1
    21     6     5    1
    22     6     7    1
    23     7     8    1
    24     8    26    1
    25    26    28    1
    26    28    29    1
    27    29    30    1
    28    30    31    1
    29    31    32    1
    30    32    33    1
    31     8     9    1
    32    21    12    1
    33     6     1    1
    34    33    28    1
    35    20    15   ar
    36     9     1    1
    37    26    27    1
@<TRIPOS>MOLECULE
*****
 33 37 0 0 0
SMALL
GASTEIGER

@<TRIPOS>ATOM
      1 C         140.5883  139.7483  168.1787 C.3     1  UNL1        0.0704
      2 C         139.3019  140.2617  168.7547 C.3     1  UNL1        0.0087
      3 C         139.2346  140.6651  170.1979 C.3     1  UNL1        0.0005
      4 C         140.4536  140.5552  171.0651 C.3     1  UNL1        0.0000
      5 C         141.7400  140.0419  170.4891 C.3     1  UNL1        0.0005
      6 C         141.8073  139.6384  169.0459 C.3     1  UNL1        0.0095
      7 C         142.9273  139.1010  168.2051 C.3     1  UNL1        0.0162
      8 C         142.4005  138.8788  166.8184 C.3     1  UNL1        0.0544
      9 C         140.9549  139.2788  166.8021 C.3     1  UNL1        0.0243
     10 O         138.2375  138.9559  167.4067 O.2     1  UNL1       -0.2749
     11 C         139.4576  139.8023  167.1945 C.2     1  UNL1        0.2250
     12 N         139.5471  140.7027  165.9981 N.am    1  UNL1       -0.2750
     13 C         138.4165  140.7566  165.0138 C.3     1  UNL1        0.1000
     14 C         138.5060  141.6570  163.8175 C.3     1  UNL1        0.0670
     15 C         139.7261  142.5033  163.6053 C.ar    1  UNL1        0.0583
     16 N         139.8155  143.4037  162.4089 N.ar    1  UNL1       -0.2484
     17 C         141.0356  144.2501  162.1967 C.ar    1  UNL1        0.1023
     18 C         142.1663  144.1960  163.1810 C.ar    1  UNL1        0.0902
     19 C         142.0768  143.2957  164.3774 C.ar    1  UNL1        0.0040
     20 C         140.8567  142.4493  164.5896 C.ar    1  UNL1        0.0113
     21 C         140.7672  141.5490  165.7859 C.3     1  UNL1        0.1213
     22 C         143.3864  145.0424  162.9689 C.3     1  UNL1        0.4200
     23 F         144.6065  145.8887  162.7567 F       1  UNL1       -0.1658
     24 F         142.9862  145.9093  164.1258 F       1  UNL1       -0.1658
     25 F         143.7866  144.1755  161.8120 F       1  UNL1       -0.1658
     26 N         143.1820  138.3495  165.6526 N.3     1  UNL1       -0.2995
     27 H         142.6698  137.5423  165.2969 H       1  UNL1        0.1232
     28 C         143.4658  139.2351  164.4758 C.3     1  UNL1        0.0590
     29 C         142.4646  139.3501  163.3649 C.3     1  UNL1        0.0478
     30 C         142.7485  140.2359  162.1879 C.3     1  UNL1        0.1435
     31 O         144.0337  141.0066  162.1221 O.3     1  UNL1       -0.3537
     32 C         145.0349  140.8916  163.2331 C.3     1  UNL1        0.1435
     33 C         144.7510  140.0059  164.4099 C.3     1  UNL1        0.0478
@<TRIPOS>BOND
     1    10    11    2
     2    11    12   am
     3    12    13    1
     4    13    14    1
     5    14    15    1
     6    15    16   ar
     7    16    17   ar
     8    17    18   ar
     9    18    22    1
    10    22    23    1
    11    22    24    1
    12    22    25    1
    13    18    19   ar
    14    19    20   ar
    15    20    21    1
    16     1    11    1
    17     1     2    1
    18     2     3    1
    19     3     4    1
    20     4     5    1
    21     6     5    1
    22     6     7    1
    23     7     8    1
    24     8    26    1
    25    26    28    1
    26    28    29    1
    27    29    30    1
    28    30    31    1
    29    31    32    1
    30    32    33    1
    31     8     9    1
    32    21    12    1
    33     6     1    1
    34    33    28    1
    35    20    15   ar
    36     9     1    1
    37    26    27    1
@<TRIPOS>MOLECULE
*****
 33 37 0 0 0
SMALL
GASTEIGER

@<TRIPOS>ATOM
      1 C         143.1942  140.2529  161.0952 C.3     1  UNL1        0.0704
      2 C         144.0034  139.3263  161.9534 C.3     1  UNL1        0.0087
      3 C         144.0636  137.8633  161.6278 C.3     1  UNL1        0.0005
      4 C         143.3147  137.3269  160.4439 C.3     1  UNL1        0.0000
      5 C         142.5055  138.2536  159.5857 C.3     1  UNL1        0.0005
      6 C         142.4452  139.7166  159.9114 C.3     1  UNL1        0.0095
      7 C         141.7364  140.8630  159.2531 C.3     1  UNL1        0.0162
      8 C         142.0472  142.1079  160.0301 C.3     1  UNL1        0.0544
      9 C         142.9482  141.7308  161.1686 C.3     1  UNL1        0.0243
     10 O         145.1987  141.6231  162.0197 O.2     1  UNL1       -0.2749
     11 C         143.8866  140.9305  162.2404 C.2     1  UNL1        0.2250
     12 N         143.2668  140.9155  163.6063 N.am    1  UNL1       -0.2750
     13 C         143.9592  141.5931  164.7515 C.3     1  UNL1        0.1000
     14 C         143.3394  141.5781  166.1174 C.3     1  UNL1        0.0670
     15 C         142.0273  140.8855  166.3381 C.ar    1  UNL1        0.0583
     16 N         141.4076  140.8705  167.7040 N.ar    1  UNL1       -0.2484
     17 C         140.0955  140.1780  167.9247 C.ar    1  UNL1        0.1023
     18 C         139.4031  139.5004  166.7794 C.ar    1  UNL1        0.0902
     19 C         140.0228  139.5154  165.4136 C.ar    1  UNL1        0.0040
     20 C         141.3349  140.2080  165.1929 C.ar    1  UNL1        0.0113
     21 C         141.9547  140.2230  163.8270 C.3     1  UNL1        0.1213
     22 C         138.0910  138.8078  167.0001 C.3     1  UNL1        0.4200
     23 F         136.7789  138.1152  167.2208 F       1  UNL1       -0.1658
     24 F         138.0430  139.3448  168.3999 F       1  UNL1       -0.1658
     25 F         138.1390  138.2708  165.6004 F       1  UNL1       -0.1658
     26 N         141.5453  143.4875  159.7226 N.3     1  UNL1       -0.2995
     27 H         141.1239  143.4476  158.7946 H       1  UNL1        0.1232
     28 C         140.5410  144.1390  160.6265 C.3     1  UNL1        0.0590
     29 C         140.4962  145.6336  160.7442 C.3     1  UNL1        0.0478
     30 C         139.4919  146.2851  161.6482 C.3     1  UNL1        0.1435
     31 O         138.5324  145.4417  162.4344 O.3     1  UNL1       -0.3537
     32 C         138.5772  143.9471  162.3167 C.3     1  UNL1        0.1435
     33 C         139.5815  143.2957  161.4128 C.3     1  UNL1        0.0478
@<TRIPOS>BOND
     1    10    11    2
     2    11    12   am
     3    12    13    1
     4    13    14    1
     5    14    15    1
     6    15    16   ar
     7    16    17   ar
     8    17    18   ar
     9    18    22    1
    10    22    23    1
    11    22    24    1
    12    22    25    1
    13    18    19   ar
    14    19    20   ar
    15    20    21    1
    16     1    11    1
    17     1     2    1
    18     2     3    1
    19     3     4    1
    20     4     5    1
    21     6     5    1
    22     6     7    1
    23     7     8    1
    24     8    26    1
    25    26    28    1
    26    28    29    1
    27    29    30    1
    28    30    31    1
    29    31    32    1
    30    32    33    1
    31     8     9    1
    32    21    12    1
    33     6     1    1
    34    33    28    1
    35    20    15   ar
    36     9     1    1
    37    26    27    1
