@<TRIPOS>MOLECULE
*****
 21 23 0 0 0
SMALL
GASTEIGER

@<TRIPOS>ATOM
      1 C         142.5337  139.3245  165.9951 C.3     1  UNL1        0.0013
      2 C         145.2684  142.4476  164.2578 C.3     1  UNL1        0.0000
      3 C         144.1793  142.8490  165.2079 C.3     1  UNL1        0.0000
      4 C         143.2678  141.8080  165.7870 C.3     1  UNL1        0.0000
      5 C         143.4453  140.3655  165.4160 C.3     1  UNL1        0.0000
      6 C         144.5343  139.9641  164.4659 C.3     1  UNL1        0.0000
      7 C         145.4459  141.0051  163.8868 C.3     1  UNL1        0.0000
      8 C         141.8512  139.5717  167.3077 C.3     1  UNL1        0.0000
      9 C         140.4150  140.0036  167.3367 C.3     1  UNL1        0.0000
     10 C         139.7325  140.2507  168.6494 C.3     1  UNL1        0.0000
     11 C         140.4861  140.0660  169.9330 C.3     1  UNL1        0.0000
     12 C         141.9223  139.6341  169.9041 C.3     1  UNL1        0.0000
     13 C         142.6049  139.3870  168.5915 C.3     1  UNL1        0.0000
     14 C         142.3047  138.0364  165.2615 C.3     1  UNL1        0.0157
     15 C         141.3134  137.9796  164.1371 C.3     1  UNL1        0.0540
     16 C         139.8590  137.7581  164.4299 C.3     1  UNL1        0.0158
     17 C         138.8678  137.7013  163.3055 C.3     1  UNL1        0.0028
     18 C         139.3310  137.8659  161.8883 C.3     1  UNL1        0.0171
     19 C         140.7854  138.0873  161.5956 C.3     1  UNL1        0.0685
     20 N         141.7766  138.1442  162.7200 N.3     1  UNL1       -0.2985
     21 H         142.2341  139.0541  162.6635 H       1  UNL1        0.1232
@<TRIPOS>BOND
     1     2     3    1
     2     3     4    1
     3     4     5    1
     4     5     1    1
     5     1    14    1
     6    14    15    1
     7    15    16    1
     8    16    17    1
     9    17    18    1
    10    18    19    1
    11    19    20    1
    12     1     8    1
    13     8     9    1
    14     9    10    1
    15    10    11    1
    16    11    12    1
    17    12    13    1
    18     5     6    1
    19     6     7    1
    20     7     2    1
    21    20    15    1
    22    13     8    1
    23    20    21    1
@<TRIPOS>MOLECULE
*****
 21 23 0 0 0
SMALL
GASTEIGER

@<TRIPOS>ATOM
      1 C         142.5244  139.3221  165.9987 C.3     1  UNL1        0.0013
      2 C         140.4945  140.0534  169.9477 C.3     1  UNL1        0.0000
      3 C         139.7367  140.2468  168.6677 C.3     1  UNL1        0.0000
      4 C         140.4134  140.0030  167.3514 C.3     1  UNL1        0.0000
      5 C         141.8478  139.5659  167.3150 C.3     1  UNL1        0.0000
      6 C         142.6055  139.3724  168.5950 C.3     1  UNL1        0.0000
      7 C         141.9288  139.6162  169.9113 C.3     1  UNL1        0.0000
      8 C         143.4336  140.3645  165.4184 C.3     1  UNL1        0.0000
      9 C         144.5250  139.9641  164.4705 C.3     1  UNL1        0.0000
     10 C         145.4343  141.0065  163.8902 C.3     1  UNL1        0.0000
     11 C         145.2520  142.4493  164.2578 C.3     1  UNL1        0.0000
     12 C         144.1606  142.8497  165.2056 C.3     1  UNL1        0.0000
     13 C         143.2514  141.8073  165.7859 C.3     1  UNL1        0.0000
     14 C         142.2918  138.0360  165.2626 C.3     1  UNL1        0.0157
     15 C         141.3034  137.9851  164.1355 C.3     1  UNL1        0.0540
     16 C         139.8459  137.7798  164.4248 C.3     1  UNL1        0.0158
     17 C         138.8575  137.7289  163.2977 C.3     1  UNL1        0.0028
     18 C         139.3266  137.8832  161.8812 C.3     1  UNL1        0.0171
     19 C         140.7840  138.0884  161.5920 C.3     1  UNL1        0.0685
     20 N         141.7725  138.1393  162.7191 N.3     1  UNL1       -0.2985
     21 H         142.2395  139.0443  162.6605 H       1  UNL1        0.1232
@<TRIPOS>BOND
     1     2     3    1
     2     3     4    1
     3     4     5    1
     4     5     1    1
     5     1    14    1
     6    14    15    1
     7    15    16    1
     8    16    17    1
     9    17    18    1
    10    18    19    1
    11    19    20    1
    12     1     8    1
    13     8     9    1
    14     9    10    1
    15    10    11    1
    16    11    12    1
    17    12    13    1
    18     5     6    1
    19     6     7    1
    20     7     2    1
    21    20    15    1
    22    13     8    1
    23    20    21    1
@<TRIPOS>MOLECULE
*****
 21 23 0 0 0
SMALL
GASTEIGER

@<TRIPOS>ATOM
      1 C         141.8166  141.8104  165.9785 C.3     1  UNL1        0.0013
      2 C         145.7141  141.1614  163.8247 C.3     1  UNL1        0.0000
      3 C         144.9191  139.9847  164.3079 C.3     1  UNL1        0.0000
      4 C         143.6200  140.2011  165.0258 C.3     1  UNL1        0.0000
      5 C         143.1158  141.5941  165.2606 C.3     1  UNL1        0.0000
      6 C         143.9107  142.7708  164.7774 C.3     1  UNL1        0.0000
      7 C         145.2098  142.5544  164.0595 C.3     1  UNL1        0.0000
      8 C         141.8163  142.2670  167.4073 C.3     1  UNL1        0.0000
      9 C         143.0601  142.1391  168.2358 C.3     1  UNL1        0.0000
     10 C         143.0597  142.5957  169.6647 C.3     1  UNL1        0.0000
     11 C         141.8155  143.1801  170.2650 C.3     1  UNL1        0.0000
     12 C         140.5716  143.3079  169.4364 C.3     1  UNL1        0.0000
     13 C         140.5720  142.8514  168.0076 C.3     1  UNL1        0.0000
     14 C         140.5178  141.5702  165.2676 C.3     1  UNL1        0.0157
     15 C         139.8753  140.2157  165.3167 C.3     1  UNL1        0.0540
     16 C         138.8559  139.9071  166.3729 C.3     1  UNL1        0.0158
     17 C         138.2133  138.5525  166.4220 C.3     1  UNL1        0.0028
     18 C         138.5901  137.5067  165.4149 C.3     1  UNL1        0.0171
     19 C         139.6095  137.8154  164.3587 C.3     1  UNL1        0.0685
     20 N         140.2521  139.1699  164.3096 N.3     1  UNL1       -0.2985
     21 H         140.0473  139.5598  163.3896 H       1  UNL1        0.1232
@<TRIPOS>BOND
     1     2     3    1
     2     3     4    1
     3     4     5    1
     4     5     1    1
     5     1    14    1
     6    14    15    1
     7    15    16    1
     8    16    17    1
     9    17    18    1
    10    18    19    1
    11    19    20    1
    12     1     8    1
    13     8     9    1
    14     9    10    1
    15    10    11    1
    16    11    12    1
    17    12    13    1
    18     5     6    1
    19     6     7    1
    20     7     2    1
    21    20    15    1
    22    13     8    1
    23    20    21    1
@<TRIPOS>MOLECULE
*****
 21 23 0 0 0
SMALL
GASTEIGER

@<TRIPOS>ATOM
      1 C         141.8143  141.8164  165.9699 C.3     1  UNL1        0.0013
      2 C         141.8050  143.1877  170.2559 C.3     1  UNL1        0.0000
      3 C         140.5620  143.3129  169.4256 C.3     1  UNL1        0.0000
      4 C         140.5651  142.8558  167.9970 C.3     1  UNL1        0.0000
      5 C         141.8112  142.2735  167.3986 C.3     1  UNL1        0.0000
      6 C         143.0541  142.1483  168.2288 C.3     1  UNL1        0.0000
      7 C         143.0510  142.6054  169.6575 C.3     1  UNL1        0.0000
      8 C         143.1148  141.6019  165.2539 C.3     1  UNL1        0.0000
      9 C         143.6227  140.2096  165.0224 C.3     1  UNL1        0.0000
     10 C         144.9233  139.9952  164.3063 C.3     1  UNL1        0.0000
     11 C         145.7158  141.1729  163.8219 C.3     1  UNL1        0.0000
     12 C         145.2079  142.5652  164.0535 C.3     1  UNL1        0.0000
     13 C         143.9074  142.7797  164.7695 C.3     1  UNL1        0.0000
     14 C         140.5169  141.5739  165.2572 C.3     1  UNL1        0.0157
     15 C         139.8749  140.2192  165.3086 C.3     1  UNL1        0.0540
     16 C         138.8387  139.9194  166.3510 C.3     1  UNL1        0.0158
     17 C         138.1966  138.5648  166.4024 C.3     1  UNL1        0.0028
     18 C         138.5907  137.5099  165.4113 C.3     1  UNL1        0.0171
     19 C         139.6268  137.8098  164.3690 C.3     1  UNL1        0.0685
     20 N         140.2689  139.1644  164.3176 N.3     1  UNL1       -0.2985
     21 H         140.0787  139.5454  163.3908 H       1  UNL1        0.1232
@<TRIPOS>BOND
     1     2     3    1
     2     3     4    1
     3     4     5    1
     4     5     1    1
     5     1    14    1
     6    14    15    1
     7    15    16    1
     8    16    17    1
     9    17    18    1
    10    18    19    1
    11    19    20    1
    12     1     8    1
    13     8     9    1
    14     9    10    1
    15    10    11    1
    16    11    12    1
    17    12    13    1
    18     5     6    1
    19     6     7    1
    20     7     2    1
    21    20    15    1
    22    13     8    1
    23    20    21    1
@<TRIPOS>MOLECULE
*****
 21 23 0 0 0
SMALL
GASTEIGER

@<TRIPOS>ATOM
      1 C         141.2946  141.9934  166.2233 C.3     1  UNL1        0.0013
      2 C         142.5639  143.0529  170.4085 C.3     1  UNL1        0.0000
      3 C         141.1603  143.3297  169.9577 C.3     1  UNL1        0.0000
      4 C         140.7372  142.9765  168.5627 C.3     1  UNL1        0.0000
      5 C         141.7177  142.3465  167.6184 C.3     1  UNL1        0.0000
      6 C         143.1213  142.0697  168.0692 C.3     1  UNL1        0.0000
      7 C         143.5444  142.4229  169.4642 C.3     1  UNL1        0.0000
      8 C         140.7539  143.0551  165.3121 C.3     1  UNL1        0.0000
      9 C         141.6863  143.8361  164.4342 C.3     1  UNL1        0.0000
     10 C         141.1455  144.8978  163.5229 C.3     1  UNL1        0.0000
     11 C         139.6724  145.1786  163.4897 C.3     1  UNL1        0.0000
     12 C         138.7400  144.3976  164.3676 C.3     1  UNL1        0.0000
     13 C         139.2807  143.3359  165.2788 C.3     1  UNL1        0.0000
     14 C         141.4122  140.5785  165.7394 C.3     1  UNL1        0.0157
     15 C         140.2623  139.6301  165.9081 C.3     1  UNL1        0.0540
     16 C         139.2302  139.8836  166.9667 C.3     1  UNL1        0.0158
     17 C         138.0803  138.9352  167.1353 C.3     1  UNL1        0.0028
     18 C         137.9626  137.7334  166.2454 C.3     1  UNL1        0.0171
     19 C         138.9947  137.4800  165.1869 C.3     1  UNL1        0.0685
     20 N         140.1446  138.4284  165.0182 N.3     1  UNL1       -0.2985
     21 H         140.1024  138.7747  164.0597 H       1  UNL1        0.1232
@<TRIPOS>BOND
     1     2     3    1
     2     3     4    1
     3     4     5    1
     4     5     1    1
     5     1    14    1
     6    14    15    1
     7    15    16    1
     8    16    17    1
     9    17    18    1
    10    18    19    1
    11    19    20    1
    12     1     8    1
    13     8     9    1
    14     9    10    1
    15    10    11    1
    16    11    12    1
    17    12    13    1
    18     5     6    1
    19     6     7    1
    20     7     2    1
    21    20    15    1
    22    13     8    1
    23    20    21    1
@<TRIPOS>MOLECULE
*****
 21 23 0 0 0
SMALL
GASTEIGER

@<TRIPOS>ATOM
      1 C         139.9302  141.6702  166.5683 C.3     1  UNL1        0.0013
      2 C         138.8887  144.5739  163.2921 C.3     1  UNL1        0.0000
      3 C         140.2120  144.6748  163.9910 C.3     1  UNL1        0.0000
      4 C         140.5592  143.7069  165.0831 C.3     1  UNL1        0.0000
      5 C         139.5830  142.6381  165.4762 C.3     1  UNL1        0.0000
      6 C         138.2597  142.5372  164.7773 C.3     1  UNL1        0.0000
      7 C         137.9125  143.5051  163.6853 C.3     1  UNL1        0.0000
      8 C         140.8404  142.0924  167.6833 C.3     1  UNL1        0.0000
      9 C         142.2709  141.6414  167.6953 C.3     1  UNL1        0.0000
     10 C         143.1811  142.0636  168.8104 C.3     1  UNL1        0.0000
     11 C         142.6607  142.9368  169.9134 C.3     1  UNL1        0.0000
     12 C         141.2302  143.3878  169.9014 C.3     1  UNL1        0.0000
     13 C         140.3200  142.9656  168.7864 C.3     1  UNL1        0.0000
     14 C         139.3672  140.2801  166.5453 C.3     1  UNL1        0.0157
     15 C         139.8567  139.2893  165.5311 C.3     1  UNL1        0.0540
     16 C         141.2874  138.8391  165.5521 C.3     1  UNL1        0.0158
     17 C         141.7769  137.8484  164.5378 C.3     1  UNL1        0.0028
     18 C         140.8356  137.3077  163.5025 C.3     1  UNL1        0.0171
     19 C         139.4049  137.7579  163.4815 C.3     1  UNL1        0.0685
     20 N         138.9155  138.7487  164.4958 N.3     1  UNL1       -0.2985
     21 H         138.1497  138.3008  164.9992 H       1  UNL1        0.1232
@<TRIPOS>BOND
     1     2     3    1
     2     3     4    1
     3     4     5    1
     4     5     1    1
     5     1    14    1
     6    14    15    1
     7    15    16    1
     8    16    17    1
     9    17    18    1
    10    18    19    1
    11    19    20    1
    12     1     8    1
    13     8     9    1
    14     9    10    1
    15    10    11    1
    16    11    12    1
    17    12    13    1
    18     5     6    1
    19     6     7    1
    20     7     2    1
    21    20    15    1
    22    13     8    1
    23    20    21    1
@<TRIPOS>MOLECULE
*****
 21 23 0 0 0
SMALL
GASTEIGER

@<TRIPOS>ATOM
      1 C         141.8118  141.7913  165.9621 C.3     1  UNL1        0.0013
      2 C         145.7162  141.1930  163.8064 C.3     1  UNL1        0.0000
      3 C         145.1819  142.5783  164.0198 C.3     1  UNL1        0.0000
      4 C         143.8804  142.7777  164.7383 C.3     1  UNL1        0.0000
      5 C         143.1133  141.5919  165.2436 C.3     1  UNL1        0.0000
      6 C         143.6476  140.2067  165.0302 C.3     1  UNL1        0.0000
      7 C         144.9491  140.0072  164.3116 C.3     1  UNL1        0.0000
      8 C         141.8061  142.2519  167.3896 C.3     1  UNL1        0.0000
      9 C         140.5512  142.8100  167.9927 C.3     1  UNL1        0.0000
     10 C         140.5456  143.2706  169.4202 C.3     1  UNL1        0.0000
     11 C         141.7948  143.1732  170.2447 C.3     1  UNL1        0.0000
     12 C         143.0498  142.6151  169.6416 C.3     1  UNL1        0.0000
     13 C         143.0555  142.1545  168.2141 C.3     1  UNL1        0.0000
     14 C         140.5160  141.5301  165.2532 C.3     1  UNL1        0.0157
     15 C         139.8570  140.1873  165.3655 C.3     1  UNL1        0.0540
     16 C         140.3226  139.0492  164.5063 C.3     1  UNL1        0.0158
     17 C         139.6637  137.7064  164.6186 C.3     1  UNL1        0.0028
     18 C         138.5392  137.5016  165.5900 C.3     1  UNL1        0.0171
     19 C         138.0737  138.6396  166.4491 C.3     1  UNL1        0.0685
     20 N         138.7326  139.9825  166.3369 N.3     1  UNL1       -0.2985
     21 H         139.0975  140.2097  167.2619 H       1  UNL1        0.1232
@<TRIPOS>BOND
     1     2     3    1
     2     3     4    1
     3     4     5    1
     4     5     1    1
     5     1    14    1
     6    14    15    1
     7    15    16    1
     8    16    17    1
     9    17    18    1
    10    18    19    1
    11    19    20    1
    12     1     8    1
    13     8     9    1
    14     9    10    1
    15    10    11    1
    16    11    12    1
    17    12    13    1
    18     5     6    1
    19     6     7    1
    20     7     2    1
    21    20    15    1
    22    13     8    1
    23    20    21    1
@<TRIPOS>MOLECULE
*****
 21 23 0 0 0
SMALL
GASTEIGER

@<TRIPOS>ATOM
      1 C         141.7999  141.6850  166.3188 C.3     1  UNL1        0.0013
      2 C         145.4722  141.2533  163.7541 C.3     1  UNL1        0.0000
      3 C         144.7900  140.0335  164.2986 C.3     1  UNL1        0.0000
      4 C         143.5659  140.1774  165.1535 C.3     1  UNL1        0.0000
      5 C         143.0240  141.5411  165.4639 C.3     1  UNL1        0.0000
      6 C         143.7061  142.7610  164.9194 C.3     1  UNL1        0.0000
      7 C         144.9302  142.6171  164.0645 C.3     1  UNL1        0.0000
      8 C         141.9215  142.2010  167.7220 C.3     1  UNL1        0.0000
      9 C         140.7391  142.8346  168.3932 C.3     1  UNL1        0.0000
     10 C         140.8607  143.3506  169.7965 C.3     1  UNL1        0.0000
     11 C         142.1647  143.2330  170.5284 C.3     1  UNL1        0.0000
     12 C         143.3471  142.5994  169.8572 C.3     1  UNL1        0.0000
     13 C         143.2255  142.0834  168.4540 C.3     1  UNL1        0.0000
     14 C         140.4542  141.3129  165.7706 C.3     1  UNL1        0.0157
     15 C         139.6666  142.3108  164.9744 C.3     1  UNL1        0.0540
     16 C         140.0395  143.7633  165.0130 C.3     1  UNL1        0.0158
     17 C         139.2519  144.7612  164.2168 C.3     1  UNL1        0.0028
     18 C         138.0916  144.3066  163.3819 C.3     1  UNL1        0.0171
     19 C         137.7188  142.8542  163.3432 C.3     1  UNL1        0.0685
     20 N         138.5063  141.8563  164.1395 N.3     1  UNL1       -0.2985
     21 H         138.8708  141.1723  163.4764 H       1  UNL1        0.1232
@<TRIPOS>BOND
     1     2     3    1
     2     3     4    1
     3     4     5    1
     4     5     1    1
     5     1    14    1
     6    14    15    1
     7    15    16    1
     8    16    17    1
     9    17    18    1
    10    18    19    1
    11    19    20    1
    12     1     8    1
    13     8     9    1
    14     9    10    1
    15    10    11    1
    16    11    12    1
    17    12    13    1
    18     5     6    1
    19     6     7    1
    20     7     2    1
    21    20    15    1
    22    13     8    1
    23    20    21    1
@<TRIPOS>MOLECULE
*****
 21 23 0 0 0
SMALL
GASTEIGER

@<TRIPOS>ATOM
      1 C         141.8004  141.7698  165.9086 C.3     1  UNL1        0.0013
      2 C         141.7082  143.1934  170.1766 C.3     1  UNL1        0.0000
      3 C         140.4812  143.3073  169.3213 C.3     1  UNL1        0.0000
      4 C         140.5119  142.8328  167.8986 C.3     1  UNL1        0.0000
      5 C         141.7696  142.2443  167.3313 C.3     1  UNL1        0.0000
      6 C         142.9966  142.1305  168.1866 C.3     1  UNL1        0.0000
      7 C         142.9659  142.6050  169.6092 C.3     1  UNL1        0.0000
      8 C         143.1136  141.5850  165.2079 C.3     1  UNL1        0.0000
      9 C         143.8794  142.7799  164.7223 C.3     1  UNL1        0.0000
     10 C         145.1927  142.5950  164.0215 C.3     1  UNL1        0.0000
     11 C         145.7402  141.2152  163.8063 C.3     1  UNL1        0.0000
     12 C         144.9745  140.0202  164.2919 C.3     1  UNL1        0.0000
     13 C         143.6612  140.2051  164.9927 C.3     1  UNL1        0.0000
     14 C         140.5178  141.4802  165.1868 C.3     1  UNL1        0.0157
     15 C         139.8538  140.1444  165.3440 C.3     1  UNL1        0.0540
     16 C         140.3265  138.9721  164.5363 C.3     1  UNL1        0.0158
     17 C         139.6624  137.6363  164.6936 C.3     1  UNL1        0.0028
     18 C         138.5257  137.4728  165.6586 C.3     1  UNL1        0.0171
     19 C         138.0531  138.6451  166.4663 C.3     1  UNL1        0.0685
     20 N         138.7172  139.9809  166.3090 N.3     1  UNL1       -0.2985
     21 H         139.0716  140.2436  167.2287 H       1  UNL1        0.1232
@<TRIPOS>BOND
     1     2     3    1
     2     3     4    1
     3     4     5    1
     4     5     1    1
     5     1    14    1
     6    14    15    1
     7    15    16    1
     8    16    17    1
     9    17    18    1
    10    18    19    1
    11    19    20    1
    12     1     8    1
    13     8     9    1
    14     9    10    1
    15    10    11    1
    16    11    12    1
    17    12    13    1
    18     5     6    1
    19     6     7    1
    20     7     2    1
    21    20    15    1
    22    13     8    1
    23    20    21    1
