@<TRIPOS>MOLECULE
*****
 28 30 0 0 0
SMALL
GASTEIGER

@<TRIPOS>ATOM
      1 C         142.2643  140.0777  167.4294 C.ar    1  UNL1       -0.0208
      2 C         141.1473  139.6222  166.5379 C.ar    1  UNL1       -0.0042
      3 C         140.8405  140.3736  165.2765 C.ar    1  UNL1       -0.0003
      4 C         141.6507  141.5806  164.9066 C.ar    1  UNL1       -0.0000
      5 C         142.7677  142.0361  165.7981 C.ar    1  UNL1       -0.0003
      6 C         143.0745  141.2847  167.0595 C.ar    1  UNL1       -0.0042
      7 C         141.3439  142.3321  163.6451 C.ar    1  UNL1        0.0001
      8 C         140.0521  142.0888  162.9225 C.ar    1  UNL1        0.0013
      9 C         139.7453  142.8402  161.6611 C.ar    1  UNL1        0.0183
     10 C         140.7303  143.8350  161.1222 C.ar    1  UNL1        0.1057
     11 C         142.0221  144.0782  161.8449 C.ar    1  UNL1        0.0183
     12 C         142.3289  143.3268  163.1063 C.ar    1  UNL1        0.0013
     13 S         140.4235  144.5864  159.8608 S.O2    1  UNL1        0.0087
     14 O         139.1996  143.7437  159.6565 O.2     1  UNL1       -0.1686
     15 O         141.6474  145.4292  160.0652 O.2     1  UNL1       -0.1686
     16 C         140.1167  145.3379  158.5994 C.3     1  UNL1        0.1585
     17 C         140.7479  144.9192  157.3047 C.3     1  UNL1        0.0575
     18 C         141.8160  145.7686  156.6819 C.3     1  UNL1        0.1390
     19 O         142.8123  146.4774  157.5508 O.3     1  UNL1       -0.3819
     20 H         142.3579  147.1508  158.0808 H       1  UNL1        0.2104
     21 C         142.5711  139.3263  168.6908 C.3     1  UNL1        0.0437
     22 C         142.3712  139.9848  170.0236 C.3     1  UNL1        0.0768
     23 C         139.1576  140.5286  169.8616 C.3     1  UNL1        0.0173
     24 C         140.2209  141.5728  170.0312 C.3     1  UNL1        0.0576
     25 C         139.9939  143.0502  170.1560 C.3     1  UNL1        0.0174
     26 C         141.3308  143.7135  170.3076 C.3     1  UNL1        0.0187
     27 C         142.3841  142.6458  170.2765 C.3     1  UNL1        0.0721
     28 N         141.6981  141.3228  170.1056 N.3     1  UNL1       -0.2737
@<TRIPOS>BOND
     1    24    23    1
     2    24    25    1
     3    25    26    1
     4    26    27    1
     5    27    28    1
     6    28    22    1
     7    22    21    1
     8    21     1    1
     9     1     2   ar
    10     2     3   ar
    11     3     4   ar
    12     4     7    1
    13     7     8   ar
    14     8     9   ar
    15     9    10   ar
    16    10    13    1
    17    13    14    2
    18    13    15    2
    19    13    16    1
    20    16    17    1
    21    17    18    1
    22    18    19    1
    23    10    11   ar
    24    11    12   ar
    25     4     5   ar
    26     5     6   ar
    27    28    24    1
    28     6     1   ar
    29    12     7   ar
    30    19    20    1
@<TRIPOS>MOLECULE
*****
 28 30 0 0 0
SMALL
GASTEIGER

@<TRIPOS>ATOM
      1 C         139.1369  139.8739  167.6879 C.ar    1  UNL1       -0.0208
      2 C         138.3558  138.8150  166.9678 C.ar    1  UNL1       -0.0042
      3 C         138.5278  138.6313  165.4891 C.ar    1  UNL1       -0.0003
      4 C         139.4810  139.5065  164.7305 C.ar    1  UNL1       -0.0000
      5 C         140.2622  140.5653  165.4505 C.ar    1  UNL1       -0.0003
      6 C         140.0901  140.7490  166.9292 C.ar    1  UNL1       -0.0042
      7 C         139.6530  139.3227  163.2517 C.ar    1  UNL1        0.0001
      8 C         138.6946  138.4589  162.4867 C.ar    1  UNL1        0.0013
      9 C         138.8666  138.2751  161.0080 C.ar    1  UNL1        0.0183
     10 C         139.9971  138.9553  160.2942 C.ar    1  UNL1        0.1057
     11 C         140.9556  139.8192  161.0592 C.ar    1  UNL1        0.0183
     12 C         140.7835  140.0029  162.5379 C.ar    1  UNL1        0.0013
     13 S         140.1692  138.7716  158.8155 S.O2    1  UNL1        0.0087
     14 O         141.5942  138.3570  159.0328 O.2     1  UNL1       -0.1686
     15 O         138.7441  139.1862  158.5982 O.2     1  UNL1       -0.1686
     16 C         140.3412  138.5879  157.3368 C.3     1  UNL1        0.1585
     17 C         139.9730  137.2830  156.6953 C.3     1  UNL1        0.0575
     18 C         139.2617  137.2708  155.3746 C.3     1  UNL1        0.1390
     19 O         137.7624  137.2819  155.3302 O.3     1  UNL1       -0.3819
     20 H         137.4217  136.4550  155.7057 H       1  UNL1        0.2104
     21 C         138.9649  140.0576  169.1666 C.3     1  UNL1        0.0437
     22 C         140.1483  139.9359  170.0802 C.3     1  UNL1        0.0768
     23 C         139.8940  143.1498  170.5855 C.3     1  UNL1        0.0173
     24 C         141.1491  142.4100  170.2289 C.3     1  UNL1        0.0576
     25 C         142.5078  143.0176  170.0419 C.3     1  UNL1        0.0174
     26 C         143.4644  141.9158  169.6940 C.3     1  UNL1        0.0187
     27 C         142.6969  140.6272  169.6661 C.3     1  UNL1        0.0721
     28 N         141.2661  140.9327  169.9966 N.3     1  UNL1       -0.2737
@<TRIPOS>BOND
     1    24    23    1
     2    24    25    1
     3    25    26    1
     4    26    27    1
     5    27    28    1
     6    28    22    1
     7    22    21    1
     8    21     1    1
     9     1     2   ar
    10     2     3   ar
    11     3     4   ar
    12     4     7    1
    13     7     8   ar
    14     8     9   ar
    15     9    10   ar
    16    10    13    1
    17    13    14    2
    18    13    15    2
    19    13    16    1
    20    16    17    1
    21    17    18    1
    22    18    19    1
    23    10    11   ar
    24    11    12   ar
    25     4     5   ar
    26     5     6   ar
    27    28    24    1
    28     6     1   ar
    29    12     7   ar
    30    19    20    1
@<TRIPOS>MOLECULE
*****
 28 30 0 0 0
SMALL
GASTEIGER

@<TRIPOS>ATOM
      1 C         139.2366  140.0891  167.9341 C.ar    1  UNL1       -0.0208
      2 C         138.3639  139.1281  167.1826 C.ar    1  UNL1       -0.0042
      3 C         138.2264  139.2467  165.6937 C.ar    1  UNL1       -0.0003
      4 C         138.9617  140.3263  164.9562 C.ar    1  UNL1       -0.0000
      5 C         139.8344  141.2873  165.7077 C.ar    1  UNL1       -0.0003
      6 C         139.9719  141.1687  167.1966 C.ar    1  UNL1       -0.0042
      7 C         138.8242  140.4449  163.4672 C.ar    1  UNL1        0.0001
      8 C         138.1334  139.3642  162.6894 C.ar    1  UNL1        0.0013
      9 C         137.9959  139.4828  161.2004 C.ar    1  UNL1        0.0183
     10 C         138.5492  140.6820  160.4892 C.ar    1  UNL1        0.1057
     11 C         139.2400  141.7627  161.2671 C.ar    1  UNL1        0.0183
     12 C         139.3775  141.6441  162.7560 C.ar    1  UNL1        0.0013
     13 S         138.4117  140.8006  159.0003 S.O2    1  UNL1        0.0087
     14 O         138.6105  139.3201  158.8640 O.2     1  UNL1       -0.1686
     15 O         138.2129  142.2810  159.1366 O.2     1  UNL1       -0.1686
     16 C         138.2742  140.9192  157.5114 C.3     1  UNL1        0.1585
     17 C         137.1145  141.6663  156.9224 C.3     1  UNL1        0.0575
     18 C         137.3480  142.6899  155.8510 C.3     1  UNL1        0.1390
     19 O         136.3741  143.8154  155.6640 O.3     1  UNL1       -0.3819
     20 H         135.5224  143.4597  155.3659 H       1  UNL1        0.2104
     21 C         139.3742  139.9706  169.4231 C.3     1  UNL1        0.0437
     22 C         140.7342  139.8450  170.0431 C.3     1  UNL1        0.0768
     23 C         139.8964  142.9436  170.6311 C.3     1  UNL1        0.0173
     24 C         141.2786  142.4466  170.3274 C.3     1  UNL1        0.0576
     25 C         142.5184  143.2864  170.2406 C.3     1  UNL1        0.0174
     26 C         143.6698  142.3812  169.9166 C.3     1  UNL1        0.0187
     27 C         143.1415  140.9818  169.8032 C.3     1  UNL1        0.0721
     28 N         141.6637  141.0223  170.0571 N.3     1  UNL1       -0.2737
@<TRIPOS>BOND
     1    24    23    1
     2    24    25    1
     3    25    26    1
     4    26    27    1
     5    27    28    1
     6    28    22    1
     7    22    21    1
     8    21     1    1
     9     1     2   ar
    10     2     3   ar
    11     3     4   ar
    12     4     7    1
    13     7     8   ar
    14     8     9   ar
    15     9    10   ar
    16    10    13    1
    17    13    14    2
    18    13    15    2
    19    13    16    1
    20    16    17    1
    21    17    18    1
    22    18    19    1
    23    10    11   ar
    24    11    12   ar
    25     4     5   ar
    26     5     6   ar
    27    28    24    1
    28     6     1   ar
    29    12     7   ar
    30    19    20    1
@<TRIPOS>MOLECULE
*****
 28 30 0 0 0
SMALL
GASTEIGER

@<TRIPOS>ATOM
      1 C         141.9068  136.6855  156.6722 C.ar    1  UNL1       -0.0208
      2 C         140.4865  137.1215  156.4657 C.ar    1  UNL1       -0.0042
      3 C         139.8803  138.1545  157.3687 C.ar    1  UNL1       -0.0003
      4 C         140.6944  138.7515  158.4782 C.ar    1  UNL1       -0.0000
      5 C         142.1147  138.3154  158.6846 C.ar    1  UNL1       -0.0003
      6 C         142.7209  137.2825  157.7816 C.ar    1  UNL1       -0.0042
      7 C         140.0882  139.7845  159.3812 C.ar    1  UNL1        0.0001
      8 C         138.9992  140.6808  158.8706 C.ar    1  UNL1        0.0013
      9 C         138.3930  141.7139  159.7736 C.ar    1  UNL1        0.0183
     10 C         138.8758  141.8505  161.1872 C.ar    1  UNL1        0.1057
     11 C         139.9648  140.9542  161.6978 C.ar    1  UNL1        0.0183
     12 C         140.5710  139.9212  160.7948 C.ar    1  UNL1        0.0013
     13 S         138.2696  142.8835  162.0902 S.O2    1  UNL1        0.0087
     14 O         137.2173  141.9000  162.5088 O.2     1  UNL1       -0.1686
     15 O         139.3219  143.8670  161.6715 O.2     1  UNL1       -0.1686
     16 C         137.6634  143.9165  162.9932 C.3     1  UNL1        0.1585
     17 C         137.9000  143.8509  164.4729 C.3     1  UNL1        0.0575
     18 C         138.9409  144.7264  165.1056 C.3     1  UNL1        0.1390
     19 O         140.0005  145.3647  164.2571 O.3     1  UNL1       -0.3819
     20 H         140.5728  144.6768  163.8827 H       1  UNL1        0.2104
     21 C         142.5130  135.6524  155.7692 C.3     1  UNL1        0.0437
     22 C         142.2682  134.1951  156.0262 C.3     1  UNL1        0.0768
     23 C         143.4711  131.6193  154.4237 C.3     1  UNL1        0.0173
     24 C         143.9452  132.1317  155.7513 C.3     1  UNL1        0.0576
     25 C         145.0554  131.5502  156.5754 C.3     1  UNL1        0.0174
     26 C         145.1888  132.3748  157.8214 C.3     1  UNL1        0.0187
     27 C         144.1608  133.4659  157.7673 C.3     1  UNL1        0.0721
     28 N         143.3923  133.3157  156.4879 N.3     1  UNL1       -0.2737
@<TRIPOS>BOND
     1    24    23    1
     2    24    25    1
     3    25    26    1
     4    26    27    1
     5    27    28    1
     6    28    22    1
     7    22    21    1
     8    21     1    1
     9     1     2   ar
    10     2     3   ar
    11     3     4   ar
    12     4     7    1
    13     7     8   ar
    14     8     9   ar
    15     9    10   ar
    16    10    13    1
    17    13    14    2
    18    13    15    2
    19    13    16    1
    20    16    17    1
    21    17    18    1
    22    18    19    1
    23    10    11   ar
    24    11    12   ar
    25     4     5   ar
    26     5     6   ar
    27    28    24    1
    28     6     1   ar
    29    12     7   ar
    30    19    20    1
@<TRIPOS>MOLECULE
*****
 28 30 0 0 0
SMALL
GASTEIGER

@<TRIPOS>ATOM
      1 C         140.8822  142.5782  166.1734 C.ar    1  UNL1       -0.0208
      2 C         139.6122  142.9601  165.4726 C.ar    1  UNL1       -0.0042
      3 C         139.6573  143.4645  164.0607 C.ar    1  UNL1       -0.0003
      4 C         140.9723  143.5871  163.3496 C.ar    1  UNL1       -0.0000
      5 C         142.2423  143.2053  164.0505 C.ar    1  UNL1       -0.0003
      6 C         142.1973  142.7008  165.4623 C.ar    1  UNL1       -0.0042
      7 C         141.0173  144.0917  161.9377 C.ar    1  UNL1        0.0001
      8 C         141.9560  143.4679  160.9479 C.ar    1  UNL1        0.0013
      9 C         142.0010  143.9724  159.5360 C.ar    1  UNL1        0.0183
     10 C         141.1073  145.1007  159.1139 C.ar    1  UNL1        0.1057
     11 C         140.1686  145.7246  160.1038 C.ar    1  UNL1        0.0183
     12 C         140.1236  145.2200  161.5156 C.ar    1  UNL1        0.0013
     13 S         141.1523  145.6053  157.7021 S.O2    1  UNL1        0.0087
     14 O         142.4950  146.2201  157.9645 O.2     1  UNL1       -0.1686
     15 O         139.8095  144.9905  157.4396 O.2     1  UNL1       -0.1686
     16 C         141.1972  146.1098  156.2902 C.3     1  UNL1        0.1585
     17 C         139.9530  146.1062  155.4525 C.3     1  UNL1        0.0575
     18 C         139.2644  147.3985  155.1267 C.3     1  UNL1        0.1390
     19 O         138.4600  148.1052  156.1772 O.3     1  UNL1       -0.3819
     20 H         137.6891  147.5652  156.4119 H       1  UNL1        0.2104
     21 C         140.8372  142.0736  167.5853 C.3     1  UNL1        0.0437
     22 C         140.7736  140.5991  167.8532 C.3     1  UNL1        0.0768
     23 C         142.6165  138.9605  165.7159 C.3     1  UNL1        0.0173
     24 C         141.1203  138.9117  165.8093 C.3     1  UNL1        0.0576
     25 C         140.2084  138.1011  164.9367 C.3     1  UNL1        0.0174
     26 C         138.7977  138.3533  165.3798 C.3     1  UNL1        0.0187
     27 C         138.8377  139.3199  166.5263 C.3     1  UNL1        0.0721
     28 N         140.2732  139.6649  166.7917 N.3     1  UNL1       -0.2737
@<TRIPOS>BOND
     1    24    23    1
     2    24    25    1
     3    25    26    1
     4    26    27    1
     5    27    28    1
     6    28    22    1
     7    22    21    1
     8    21     1    1
     9     1     2   ar
    10     2     3   ar
    11     3     4   ar
    12     4     7    1
    13     7     8   ar
    14     8     9   ar
    15     9    10   ar
    16    10    13    1
    17    13    14    2
    18    13    15    2
    19    13    16    1
    20    16    17    1
    21    17    18    1
    22    18    19    1
    23    10    11   ar
    24    11    12   ar
    25     4     5   ar
    26     5     6   ar
    27    28    24    1
    28     6     1   ar
    29    12     7   ar
    30    19    20    1
@<TRIPOS>MOLECULE
*****
 28 30 0 0 0
SMALL
GASTEIGER

@<TRIPOS>ATOM
      1 C         142.6979  137.8709  160.8601 C.ar    1  UNL1       -0.0208
      2 C         141.3213  137.7764  161.4483 C.ar    1  UNL1       -0.0042
      3 C         141.0877  138.1686  162.8771 C.ar    1  UNL1       -0.0003
      4 C         142.2307  138.6553  163.7178 C.ar    1  UNL1       -0.0000
      5 C         143.6073  138.7497  163.1296 C.ar    1  UNL1       -0.0003
      6 C         143.8409  138.3575  161.7008 C.ar    1  UNL1       -0.0042
      7 C         141.9971  139.0475  165.1467 C.ar    1  UNL1        0.0001
      8 C         140.6570  139.5706  165.5713 C.ar    1  UNL1        0.0013
      9 C         140.4233  139.9629  167.0002 C.ar    1  UNL1        0.0183
     10 C         141.5298  139.8318  168.0044 C.ar    1  UNL1        0.1057
     11 C         142.8700  139.3086  167.5797 C.ar    1  UNL1        0.0183
     12 C         143.1036  138.9165  166.1509 C.ar    1  UNL1        0.0013
     13 S         141.2962  140.2240  169.4332 S.O2    1  UNL1        0.0087
     14 O         142.7265  140.6613  169.5470 O.2     1  UNL1       -0.1686
     15 O         139.8659  139.7868  169.3194 O.2     1  UNL1       -0.1686
     16 C         141.0626  140.6162  170.8620 C.3     1  UNL1        0.1585
     17 C         140.5422  141.9845  171.1887 C.3     1  UNL1        0.0575
     18 C         140.4153  143.0166  170.1075 C.3     1  UNL1        0.1390
     19 O         139.9429  144.4001  170.4431 O.3     1  UNL1       -0.3819
     20 H         139.0206  144.3634  170.7415 H       1  UNL1        0.2104
     21 C         142.9316  137.4787  159.4312 C.3     1  UNL1        0.0437
     22 C         142.3076  138.2745  158.3234 C.3     1  UNL1        0.0768
     23 C         143.3087  135.8570  156.3733 C.3     1  UNL1        0.0173
     24 C         141.9415  136.4741  156.3818 C.3     1  UNL1        0.0576
     25 C         140.7946  136.0884  155.4954 C.3     1  UNL1        0.0174
     26 C         139.6255  136.9613  155.8440 C.3     1  UNL1        0.0187
     27 C         140.0500  137.8865  156.9459 C.3     1  UNL1        0.0721
     28 N         141.4814  137.5853  157.2782 N.3     1  UNL1       -0.2737
@<TRIPOS>BOND
     1    24    23    1
     2    24    25    1
     3    25    26    1
     4    26    27    1
     5    27    28    1
     6    28    22    1
     7    22    21    1
     8    21     1    1
     9     1     2   ar
    10     2     3   ar
    11     3     4   ar
    12     4     7    1
    13     7     8   ar
    14     8     9   ar
    15     9    10   ar
    16    10    13    1
    17    13    14    2
    18    13    15    2
    19    13    16    1
    20    16    17    1
    21    17    18    1
    22    18    19    1
    23    10    11   ar
    24    11    12   ar
    25     4     5   ar
    26     5     6   ar
    27    28    24    1
    28     6     1   ar
    29    12     7   ar
    30    19    20    1
@<TRIPOS>MOLECULE
*****
 28 30 0 0 0
SMALL
GASTEIGER

@<TRIPOS>ATOM
      1 C         140.7188  142.5630  166.1625 C.ar    1  UNL1       -0.0208
      2 C         142.0520  142.7455  165.4998 C.ar    1  UNL1       -0.0042
      3 C         142.1252  143.2394  164.0854 C.ar    1  UNL1       -0.0003
      4 C         140.8651  143.5508  163.3336 C.ar    1  UNL1       -0.0000
      5 C         139.5319  143.3684  163.9962 C.ar    1  UNL1       -0.0003
      6 C         139.4587  142.8745  165.4106 C.ar    1  UNL1       -0.0042
      7 C         140.9383  144.0448  161.9191 C.ar    1  UNL1        0.0001
      8 C         140.2446  145.3171  161.5321 C.ar    1  UNL1        0.0013
      9 C         140.3179  145.8111  160.1176 C.ar    1  UNL1        0.0183
     10 C         141.0848  145.0326  159.0902 C.ar    1  UNL1        0.1057
     11 C         141.7786  143.7601  159.4772 C.ar    1  UNL1        0.0183
     12 C         141.7053  143.2663  160.8916 C.ar    1  UNL1        0.0013
     13 S         141.1581  145.5264  157.6757 S.O2    1  UNL1        0.0087
     14 O         139.8623  144.8365  157.3677 O.2     1  UNL1       -0.1686
     15 O         142.4539  146.2163  157.9837 O.2     1  UNL1       -0.1686
     16 C         141.2313  146.0203  156.2613 C.3     1  UNL1        0.1585
     17 C         139.9825  146.1215  155.4366 C.3     1  UNL1        0.0575
     18 C         139.4473  147.4679  155.0481 C.3     1  UNL1        0.1390
     19 O         138.4139  148.1394  155.9033 O.3     1  UNL1       -0.3819
     20 H         137.5917  147.6252  155.8807 H       1  UNL1        0.2104
     21 C         140.6455  142.0691  167.5770 C.3     1  UNL1        0.0437
     22 C         140.6992  140.5973  167.8611 C.3     1  UNL1        0.0768
     23 C         138.2380  139.4173  166.0725 C.3     1  UNL1        0.0173
     24 C         139.6895  139.0766  165.9083 C.3     1  UNL1        0.0576
     25 C         140.2646  138.1338  164.8933 C.3     1  UNL1        0.0174
     26 C         141.7514  138.0935  165.0881 C.3     1  UNL1        0.0187
     27 C         142.0952  139.0114  166.2236 C.3     1  UNL1        0.0721
     28 N         140.8208  139.6190  166.7305 N.3     1  UNL1       -0.2737
@<TRIPOS>BOND
     1    24    23    1
     2    24    25    1
     3    25    26    1
     4    26    27    1
     5    27    28    1
     6    28    22    1
     7    22    21    1
     8    21     1    1
     9     1     2   ar
    10     2     3   ar
    11     3     4   ar
    12     4     7    1
    13     7     8   ar
    14     8     9   ar
    15     9    10   ar
    16    10    13    1
    17    13    14    2
    18    13    15    2
    19    13    16    1
    20    16    17    1
    21    17    18    1
    22    18    19    1
    23    10    11   ar
    24    11    12   ar
    25     4     5   ar
    26     5     6   ar
    27    28    24    1
    28     6     1   ar
    29    12     7   ar
    30    19    20    1
@<TRIPOS>MOLECULE
*****
 28 30 0 0 0
SMALL
GASTEIGER

@<TRIPOS>ATOM
      1 C         138.8273  139.4755  165.8416 C.ar    1  UNL1       -0.0208
      2 C         139.5588  138.3712  165.1378 C.ar    1  UNL1       -0.0042
      3 C         139.6322  138.3560  163.6397 C.ar    1  UNL1       -0.0003
      4 C         138.9740  139.4450  162.8455 C.ar    1  UNL1       -0.0000
      5 C         138.2425  140.5493  163.5493 C.ar    1  UNL1       -0.0003
      6 C         138.1692  140.5646  165.0474 C.ar    1  UNL1       -0.0042
      7 C         139.0475  139.4297  161.3473 C.ar    1  UNL1        0.0001
      8 C         139.9147  138.4245  160.6491 C.ar    1  UNL1        0.0013
      9 C         139.9881  138.4092  159.1509 C.ar    1  UNL1        0.0183
     10 C         139.1942  139.3991  158.3510 C.ar    1  UNL1        0.1057
     11 C         138.3270  140.4043  159.0493 C.ar    1  UNL1        0.0183
     12 C         138.2536  140.4196  160.5473 C.ar    1  UNL1        0.0013
     13 S         139.2676  139.3838  156.8529 S.O2    1  UNL1        0.0087
     14 O         137.8381  139.8318  156.7783 O.2     1  UNL1       -0.1686
     15 O         140.6972  138.9358  156.9275 O.2     1  UNL1       -0.1686
     16 C         139.3410  139.3685  155.3548 C.3     1  UNL1        0.1585
     17 C         139.2768  138.0658  154.6140 C.3     1  UNL1        0.0575
     18 C         137.9773  137.6000  154.0271 C.3     1  UNL1        0.1390
     19 O         136.7362  137.5861  154.8694 O.3     1  UNL1       -0.3819
     20 H         136.8357  136.9346  155.5811 H       1  UNL1        0.2104
     21 C         138.7539  139.4909  167.3398 C.3     1  UNL1        0.0437
     22 C         139.9650  139.8549  168.1464 C.3     1  UNL1        0.0768
     23 C         140.9748  142.6611  166.8216 C.3     1  UNL1        0.0173
     24 C         140.4969  142.4732  168.2309 C.3     1  UNL1        0.0576
     25 C         140.3993  143.5421  169.2787 C.3     1  UNL1        0.0174
     26 C         139.8747  142.9128  170.5353 C.3     1  UNL1        0.0187
     27 C         139.6482  141.4550  170.2641 C.3     1  UNL1        0.0721
     28 N         140.0328  141.1833  168.8398 N.3     1  UNL1       -0.2737
@<TRIPOS>BOND
     1    24    23    1
     2    24    25    1
     3    25    26    1
     4    26    27    1
     5    27    28    1
     6    28    22    1
     7    22    21    1
     8    21     1    1
     9     1     2   ar
    10     2     3   ar
    11     3     4   ar
    12     4     7    1
    13     7     8   ar
    14     8     9   ar
    15     9    10   ar
    16    10    13    1
    17    13    14    2
    18    13    15    2
    19    13    16    1
    20    16    17    1
    21    17    18    1
    22    18    19    1
    23    10    11   ar
    24    11    12   ar
    25     4     5   ar
    26     5     6   ar
    27    28    24    1
    28     6     1   ar
    29    12     7   ar
    30    19    20    1
@<TRIPOS>MOLECULE
*****
 28 30 0 0 0
SMALL
GASTEIGER

@<TRIPOS>ATOM
      1 C         142.5413  142.5304  166.1189 C.ar    1  UNL1       -0.0208
      2 C         143.6769  142.5714  165.1398 C.ar    1  UNL1       -0.0042
      3 C         143.4434  143.0590  163.7406 C.ar    1  UNL1       -0.0003
      4 C         142.0744  143.5055  163.3206 C.ar    1  UNL1       -0.0000
      5 C         140.9389  143.4646  164.2997 C.ar    1  UNL1       -0.0003
      6 C         141.1723  142.9770  165.6989 C.ar    1  UNL1       -0.0042
      7 C         141.8410  143.9931  161.9213 C.ar    1  UNL1        0.0001
      8 C         140.8391  145.0790  161.6628 C.ar    1  UNL1        0.0013
      9 C         140.6057  145.5665  160.2635 C.ar    1  UNL1        0.0183
     10 C         141.3743  144.9682  159.1228 C.ar    1  UNL1        0.1057
     11 C         142.3763  143.8822  159.3814 C.ar    1  UNL1        0.0183
     12 C         142.6097  143.3947  160.7806 C.ar    1  UNL1        0.0013
     13 S         141.1409  145.4557  157.7236 S.O2    1  UNL1        0.0087
     14 O         142.4338  146.2146  157.7724 O.2     1  UNL1       -0.1686
     15 O         139.8481  144.6967  157.6748 O.2     1  UNL1       -0.1686
     16 C         140.9076  145.9432  156.3244 C.3     1  UNL1        0.1585
     17 C         139.7628  146.8677  156.0334 C.3     1  UNL1        0.0575
     18 C         139.8408  147.8162  154.8739 C.3     1  UNL1        0.1390
     19 O         139.5969  149.2810  155.0855 O.3     1  UNL1       -0.3819
     20 H         138.6734  149.4205  155.3474 H       1  UNL1        0.2104
     21 C         142.7747  142.0429  167.5182 C.3     1  UNL1        0.0437
     22 C         142.5189  140.6059  167.8642 C.3     1  UNL1        0.0768
     23 C         139.4446  139.9639  166.9776 C.3     1  UNL1        0.0173
     24 C         140.6789  139.3469  166.3896 C.3     1  UNL1        0.0576
     25 C         140.7168  138.3266  165.2907 C.3     1  UNL1        0.0174
     26 C         142.1534  137.9910  165.0191 C.3     1  UNL1        0.0187
     27 C         143.0033  138.8041  165.9501 C.3     1  UNL1        0.0721
     28 N         142.0920  139.6420  166.7971 N.3     1  UNL1       -0.2737
@<TRIPOS>BOND
     1    24    23    1
     2    24    25    1
     3    25    26    1
     4    26    27    1
     5    27    28    1
     6    28    22    1
     7    22    21    1
     8    21     1    1
     9     1     2   ar
    10     2     3   ar
    11     3     4   ar
    12     4     7    1
    13     7     8   ar
    14     8     9   ar
    15     9    10   ar
    16    10    13    1
    17    13    14    2
    18    13    15    2
    19    13    16    1
    20    16    17    1
    21    17    18    1
    22    18    19    1
    23    10    11   ar
    24    11    12   ar
    25     4     5   ar
    26     5     6   ar
    27    28    24    1
    28     6     1   ar
    29    12     7   ar
    30    19    20    1
