@<TRIPOS>MOLECULE
*****
 34 36 0 0 0
SMALL
GASTEIGER

@<TRIPOS>ATOM
      1 C         140.3183  142.2691  164.3149 C.3     1  UNL1        0.0944
      2 N         139.5156  141.6759  165.4347 N.am    1  UNL1       -0.3005
      3 C         139.5539  140.1972  165.6835 C.2     1  UNL1        0.2474
      4 O         140.3948  139.3116  164.8125 O.2     1  UNL1       -0.2701
      5 H         138.9637  142.2571  166.0064 H       1  UNL1        0.1498
      6 C         138.7513  139.6041  166.8033 C.ar    1  UNL1        0.0727
      7 C         137.7481  138.5260  166.5179 C.ar    1  UNL1        0.0109
      8 C         136.9455  137.9329  167.6377 C.ar    1  UNL1        0.0579
      9 C         137.1460  138.4178  169.0429 C.ar    1  UNL1        0.2249
     10 N         138.1492  139.4959  169.3283 N.ar    1  UNL1       -0.2100
     11 C         138.9518  140.0890  168.2085 C.ar    1  UNL1        0.1065
     12 O         136.3434  137.8247  170.1627 O.3     1  UNL1       -0.4599
     13 C         136.2439  138.5424  171.4762 C.3     1  UNL1        0.2159
     14 C         135.3088  138.0404  172.5361 C.3     1  UNL1        0.1505
     15 C         135.6546  136.8086  173.3192 C.3     1  UNL1        0.4014
     16 F         136.0004  135.5769  174.1022 F       1  UNL1       -0.1699
     17 F         134.1978  136.5665  173.5818 F       1  UNL1       -0.1699
     18 F         137.1114  137.0507  173.0566 F       1  UNL1       -0.1699
     19 C         141.5304  143.0988  164.6185 C.3     1  UNL1        0.0484
     20 C         143.7793  141.8287  164.9004 C.ar    1  UNL1       -0.0001
     21 C         145.1193  141.4243  164.3610 C.ar    1  UNL1       -0.0002
     22 C         145.5504  141.8857  163.0004 C.ar    1  UNL1        0.0008
     23 C         144.6416  142.7514  162.1792 C.ar    1  UNL1        0.0111
     24 C         143.3016  143.1558  162.7185 C.ar    1  UNL1        0.0537
     25 CL        142.3927  144.0216  161.8973 Cl      1  UNL1       -0.0826
     26 C         142.8705  142.6944  164.0792 C.ar    1  UNL1       -0.0098
     27 C         142.4859  140.4445  168.9822 C.ar    1  UNL1        0.3201
     28 N         142.7792  141.8955  168.7403 N.ar    1  UNL1       -0.1927
     29 C         143.2103  142.3569  167.3797 C.ar    1  UNL1        0.1051
     30 C         143.3482  141.3673  166.2610 C.ar    1  UNL1        0.0383
     31 C         143.0549  139.9163  166.5029 C.ar    1  UNL1        0.1051
     32 N         142.6238  139.4549  167.8635 N.ar    1  UNL1       -0.1927
     33 C         141.1555  140.8461  171.1773 C.3     1  UNL1        0.2559
     34 O         142.0548  139.9831  170.3428 O.3     1  UNL1       -0.4426
@<TRIPOS>BOND
     1    33    34    1
     2    34    27    1
     3    27    28   ar
     4    28    29   ar
     5    29    30   ar
     6    30    20    1
     7    20    21   ar
     8    21    22   ar
     9    22    23   ar
    10    23    24   ar
    11    24    25    1
    12    24    26   ar
    13    26    19    1
    14    19     1    1
    15     1     2    1
    16     2     3   am
    17     3     4    2
    18     3     6    1
    19     6     7   ar
    20     7     8   ar
    21     8     9   ar
    22     9    12    1
    23    12    13    1
    24    13    14    1
    25    14    15    1
    26    15    16    1
    27    15    17    1
    28    15    18    1
    29     9    10   ar
    30    10    11   ar
    31    30    31   ar
    32    31    32   ar
    33    32    27   ar
    34    26    20   ar
    35    11     6   ar
    36     2     5    1
@<TRIPOS>MOLECULE
*****
 34 36 0 0 0
SMALL
GASTEIGER

@<TRIPOS>ATOM
      1 C         141.0491  140.1141  161.0183 C.3     1  UNL1        0.0944
      2 N         140.6349  140.2632  162.4523 N.am    1  UNL1       -0.3005
      3 C         140.2785  139.0505  163.2599 C.2     1  UNL1        0.2474
      4 O         140.3362  137.6887  162.6336 O.2     1  UNL1       -0.2701
      5 H         140.5969  141.1570  162.8633 H       1  UNL1        0.1498
      6 C         139.8643  139.1996  164.6938 C.ar    1  UNL1        0.0727
      7 C         138.5073  138.7364  165.1346 C.ar    1  UNL1        0.0109
      8 C         138.0932  138.8855  166.5686 C.ar    1  UNL1        0.0579
      9 C         139.0358  139.4978  167.5618 C.ar    1  UNL1        0.2249
     10 N         140.3927  139.9610  167.1210 N.ar    1  UNL1       -0.2100
     11 C         140.8070  139.8119  165.6870 C.ar    1  UNL1        0.1065
     12 O         138.6217  139.6469  168.9957 O.3     1  UNL1       -0.4599
     13 C         139.3347  140.6222  169.8848 C.3     1  UNL1        0.2159
     14 C         140.4031  140.1409  170.8212 C.3     1  UNL1        0.1505
     15 C         141.8491  140.3250  170.4674 C.3     1  UNL1        0.4014
     16 F         143.2951  140.5091  170.1136 F       1  UNL1       -0.1699
     17 F         141.8197  141.7013  171.0631 F       1  UNL1       -0.1699
     18 F         141.8786  138.9487  169.8717 F       1  UNL1       -0.1699
     19 C         142.5034  140.1358  160.6516 C.3     1  UNL1        0.0484
     20 C         143.9172  142.1364  161.5169 C.ar    1  UNL1       -0.0001
     21 C         144.9246  142.6961  162.4771 C.ar    1  UNL1       -0.0002
     22 C         145.5253  141.8152  163.5321 C.ar    1  UNL1        0.0008
     23 C         145.1188  140.3744  163.6269 C.ar    1  UNL1        0.0111
     24 C         144.1115  139.8147  162.6667 C.ar    1  UNL1        0.0537
     25 CL        143.7049  138.3739  162.7615 Cl      1  UNL1       -0.0826
     26 C         143.5107  140.6957  161.6117 C.ar    1  UNL1       -0.0098
     27 C         142.1149  144.7793  158.3520 C.ar    1  UNL1        0.3201
     28 N         141.6708  144.9082  159.7790 N.ar    1  UNL1       -0.1927
     29 C         142.2716  144.0272  160.8339 C.ar    1  UNL1        0.1051
     30 C         143.3165  143.0173  160.4620 C.ar    1  UNL1        0.0383
     31 C         143.7605  142.8884  159.0350 C.ar    1  UNL1        0.1051
     32 N         143.1597  143.7694  157.9801 N.ar    1  UNL1       -0.1927
     33 C         140.1061  146.1555  157.4461 C.3     1  UNL1        0.2559
     34 O         141.5141  145.6602  157.2971 O.3     1  UNL1       -0.4426
@<TRIPOS>BOND
     1    33    34    1
     2    34    27    1
     3    27    28   ar
     4    28    29   ar
     5    29    30   ar
     6    30    20    1
     7    20    21   ar
     8    21    22   ar
     9    22    23   ar
    10    23    24   ar
    11    24    25    1
    12    24    26   ar
    13    26    19    1
    14    19     1    1
    15     1     2    1
    16     2     3   am
    17     3     4    2
    18     3     6    1
    19     6     7   ar
    20     7     8   ar
    21     8     9   ar
    22     9    12    1
    23    12    13    1
    24    13    14    1
    25    14    15    1
    26    15    16    1
    27    15    17    1
    28    15    18    1
    29     9    10   ar
    30    10    11   ar
    31    30    31   ar
    32    31    32   ar
    33    32    27   ar
    34    26    20   ar
    35    11     6   ar
    36     2     5    1
@<TRIPOS>MOLECULE
*****
 34 36 0 0 0
SMALL
GASTEIGER

@<TRIPOS>ATOM
      1 C         141.7432  142.8278  164.8712 C.3     1  UNL1        0.0944
      2 N         141.7114  142.9776  163.3790 N.am    1  UNL1       -0.3005
      3 C         141.4569  144.3225  162.7655 C.2     1  UNL1        0.2474
      4 O         141.2342  145.5176  163.6442 O.2     1  UNL1       -0.2701
      5 H         141.8575  142.1932  162.8023 H       1  UNL1        0.1498
      6 C         141.4250  144.4722  161.2734 C.ar    1  UNL1        0.0727
      7 C         142.3389  143.6466  160.4171 C.ar    1  UNL1        0.0109
      8 C         142.3071  143.7963  158.9249 C.ar    1  UNL1        0.0579
      9 C         141.3614  144.7717  158.2891 C.ar    1  UNL1        0.2249
     10 N         140.4476  145.5973  159.1453 N.ar    1  UNL1       -0.2100
     11 C         140.4794  145.4476  160.6375 C.ar    1  UNL1        0.1065
     12 O         141.3296  144.9214  156.7969 O.3     1  UNL1       -0.4599
     13 C         140.9763  146.2438  156.1832 C.3     1  UNL1        0.2159
     14 C         139.5848  146.4891  155.6796 C.3     1  UNL1        0.1505
     15 C         139.0184  147.8780  155.6872 C.3     1  UNL1        0.4014
     16 F         138.4519  149.2669  155.6948 F       1  UNL1       -0.1699
     17 F         139.1344  147.9336  154.1927 F       1  UNL1       -0.1699
     18 F         138.9023  147.8225  157.1816 F       1  UNL1       -0.1699
     19 C         140.4696  142.9039  165.6600 C.3     1  UNL1        0.0484
     20 C         138.9038  140.8980  165.1359 C.ar    1  UNL1       -0.0001
     21 C         138.2155  139.6388  165.5724 C.ar    1  UNL1       -0.0002
     22 C         138.4046  139.1262  166.9694 C.ar    1  UNL1        0.0008
     23 C         139.2821  139.8728  167.9299 C.ar    1  UNL1        0.0111
     24 C         139.9704  141.1320  167.4934 C.ar    1  UNL1        0.0537
     25 CL        140.8479  141.8787  168.4539 Cl      1  UNL1       -0.0826
     26 C         139.7813  141.6446  166.0964 C.ar    1  UNL1       -0.0098
     27 C         138.3364  142.4358  160.9451 C.ar    1  UNL1        0.3201
     28 N         139.1906  141.2276  161.1914 N.ar    1  UNL1       -0.1927
     29 C         139.3797  140.7150  162.5884 C.ar    1  UNL1        0.1051
     30 C         138.7147  141.4106  163.7390 C.ar    1  UNL1        0.0383
     31 C         137.8606  142.6187  163.4926 C.ar    1  UNL1        0.1051
     32 N         137.6714  143.1313  162.0957 N.ar    1  UNL1       -0.1927
     33 C         138.7929  142.2388  158.3950 C.3     1  UNL1        0.2559
     34 O         138.1473  142.9484  159.5481 O.3     1  UNL1       -0.4426
@<TRIPOS>BOND
     1    33    34    1
     2    34    27    1
     3    27    28   ar
     4    28    29   ar
     5    29    30   ar
     6    30    20    1
     7    20    21   ar
     8    21    22   ar
     9    22    23   ar
    10    23    24   ar
    11    24    25    1
    12    24    26   ar
    13    26    19    1
    14    19     1    1
    15     1     2    1
    16     2     3   am
    17     3     4    2
    18     3     6    1
    19     6     7   ar
    20     7     8   ar
    21     8     9   ar
    22     9    12    1
    23    12    13    1
    24    13    14    1
    25    14    15    1
    26    15    16    1
    27    15    17    1
    28    15    18    1
    29     9    10   ar
    30    10    11   ar
    31    30    31   ar
    32    31    32   ar
    33    32    27   ar
    34    26    20   ar
    35    11     6   ar
    36     2     5    1
@<TRIPOS>MOLECULE
*****
 34 36 0 0 0
SMALL
GASTEIGER

@<TRIPOS>ATOM
      1 C         138.1417  139.5337  166.6178 C.3     1  UNL1        0.0944
      2 N         138.0760  140.3269  165.3464 N.am    1  UNL1       -0.3005
      3 C         138.6793  139.7777  164.0877 C.2     1  UNL1        0.2474
      4 O         139.3483  138.4352  164.1003 O.2     1  UNL1       -0.2701
      5 H         137.6370  141.2081  165.3380 H       1  UNL1        0.1498
      6 C         138.6136  140.5710  162.8163 C.ar    1  UNL1        0.0727
      7 C         139.2988  140.0662  161.5811 C.ar    1  UNL1        0.0109
      8 C         139.2331  140.8595  160.3097 C.ar    1  UNL1        0.0579
      9 C         138.4823  142.1575  160.2736 C.ar    1  UNL1        0.2249
     10 N         137.7971  142.6623  161.5087 N.ar    1  UNL1       -0.2100
     11 C         137.8628  141.8690  162.7802 C.ar    1  UNL1        0.1065
     12 O         138.4166  142.9508  159.0022 O.3     1  UNL1       -0.4599
     13 C         139.5366  143.8804  158.6395 C.3     1  UNL1        0.2159
     14 C         140.5410  144.2855  159.6773 C.3     1  UNL1        0.1505
     15 C         140.2309  145.4076  160.6234 C.3     1  UNL1        0.4014
     16 F         139.9209  146.5296  161.5693 F       1  UNL1       -0.1699
     17 F         140.6913  144.5639  161.7749 F       1  UNL1       -0.1699
     18 F         139.7705  146.2513  159.4718 F       1  UNL1       -0.1699
     19 C         139.4100  139.5030  167.4180 C.3     1  UNL1        0.0484
     20 C         140.7868  141.6935  167.6546 C.ar    1  UNL1       -0.0001
     21 C         141.1942  142.8911  168.4607 C.ar    1  UNL1       -0.0002
     22 C         140.6322  143.0958  169.8363 C.ar    1  UNL1        0.0008
     23 C         139.6627  142.1029  170.4058 C.ar    1  UNL1        0.0111
     24 C         139.2554  140.9053  169.5997 C.ar    1  UNL1        0.0537
     25 CL        138.2859  139.9123  170.1691 Cl      1  UNL1       -0.0826
     26 C         139.8174  140.7006  168.2241 C.ar    1  UNL1       -0.0098
     27 C         142.4730  141.0795  163.5279 C.ar    1  UNL1        0.3201
     28 N         142.8597  140.1523  164.6417 N.ar    1  UNL1       -0.1927
     29 C         142.2977  140.3569  166.0173 C.ar    1  UNL1        0.1051
     30 C         141.3489  141.4888  166.2790 C.ar    1  UNL1        0.0383
     31 C         140.9621  142.4160  165.1652 C.ar    1  UNL1        0.1051
     32 N         141.5242  142.2114  163.7896 N.ar    1  UNL1       -0.1927
     33 C         144.3763  140.2260  161.9790 C.3     1  UNL1        0.2559
     34 O         143.0350  140.8748  162.1523 O.3     1  UNL1       -0.4426
@<TRIPOS>BOND
     1    33    34    1
     2    34    27    1
     3    27    28   ar
     4    28    29   ar
     5    29    30   ar
     6    30    20    1
     7    20    21   ar
     8    21    22   ar
     9    22    23   ar
    10    23    24   ar
    11    24    25    1
    12    24    26   ar
    13    26    19    1
    14    19     1    1
    15     1     2    1
    16     2     3   am
    17     3     4    2
    18     3     6    1
    19     6     7   ar
    20     7     8   ar
    21     8     9   ar
    22     9    12    1
    23    12    13    1
    24    13    14    1
    25    14    15    1
    26    15    16    1
    27    15    17    1
    28    15    18    1
    29     9    10   ar
    30    10    11   ar
    31    30    31   ar
    32    31    32   ar
    33    32    27   ar
    34    26    20   ar
    35    11     6   ar
    36     2     5    1
@<TRIPOS>MOLECULE
*****
 34 36 0 0 0
SMALL
GASTEIGER

@<TRIPOS>ATOM
      1 C         138.1291  138.5776  161.4275 C.3     1  UNL1        0.0944
      2 N         138.1368  138.9482  162.8811 N.am    1  UNL1       -0.3005
      3 C         139.2973  138.5590  163.7481 C.2     1  UNL1        0.2474
      4 O         140.4500  137.7991  163.1617 O.2     1  UNL1       -0.2701
      5 H         137.3803  139.4469  163.2659 H       1  UNL1        0.1498
      6 C         139.3050  138.9296  165.2016 C.ar    1  UNL1        0.0727
      7 C         140.5026  139.6099  165.7958 C.ar    1  UNL1        0.0109
      8 C         140.5102  139.9805  167.2493 C.ar    1  UNL1        0.0579
      9 C         139.3204  139.6708  168.1085 C.ar    1  UNL1        0.2249
     10 N         138.1229  138.9905  167.5144 N.ar    1  UNL1       -0.2100
     11 C         138.1151  138.6199  166.0609 C.ar    1  UNL1        0.1065
     12 O         139.3281  140.0414  169.5620 O.3     1  UNL1       -0.4599
     13 C         140.6291  140.2933  170.2649 C.3     1  UNL1        0.2159
     14 C         141.0122  141.6898  170.6558 C.3     1  UNL1        0.1505
     15 C         140.5490  142.8535  169.8304 C.3     1  UNL1        0.4014
     16 F         140.0859  144.0172  169.0050 F       1  UNL1       -0.1699
     17 F         141.8063  142.7763  169.0159 F       1  UNL1       -0.1699
     18 F         139.2918  142.9308  170.6448 F       1  UNL1       -0.1699
     19 C         138.3197  139.6366  160.3825 C.3     1  UNL1        0.0484
     20 C         140.3918  141.1924  160.5727 C.ar    1  UNL1       -0.0001
     21 C         141.7748  141.5733  160.1345 C.ar    1  UNL1       -0.0002
     22 C         142.4689  140.7793  159.0679 C.ar    1  UNL1        0.0008
     23 C         141.7800  139.6044  158.4395 C.ar    1  UNL1        0.0111
     24 C         140.3970  139.2235  158.8777 C.ar    1  UNL1        0.0537
     25 CL        139.7080  138.0486  158.2492 Cl      1  UNL1       -0.0826
     26 C         139.7029  140.0175  159.9443 C.ar    1  UNL1       -0.0098
     27 C         138.3094  143.5745  163.7726 C.ar    1  UNL1        0.3201
     28 N         137.7975  143.6038  162.3630 N.ar    1  UNL1       -0.1927
     29 C         138.4916  142.8097  161.2964 C.ar    1  UNL1        0.1051
     30 C         139.6976  141.9865  161.6394 C.ar    1  UNL1        0.0383
     31 C         140.2095  141.9572  163.0490 C.ar    1  UNL1        0.1051
     32 N         139.5154  142.7512  164.1156 N.ar    1  UNL1       -0.1927
     33 C         138.4191  145.0896  165.8803 C.3     1  UNL1        0.2559
     34 O         137.6152  144.3685  164.8393 O.3     1  UNL1       -0.4426
@<TRIPOS>BOND
     1    33    34    1
     2    34    27    1
     3    27    28   ar
     4    28    29   ar
     5    29    30   ar
     6    30    20    1
     7    20    21   ar
     8    21    22   ar
     9    22    23   ar
    10    23    24   ar
    11    24    25    1
    12    24    26   ar
    13    26    19    1
    14    19     1    1
    15     1     2    1
    16     2     3   am
    17     3     4    2
    18     3     6    1
    19     6     7   ar
    20     7     8   ar
    21     8     9   ar
    22     9    12    1
    23    12    13    1
    24    13    14    1
    25    14    15    1
    26    15    16    1
    27    15    17    1
    28    15    18    1
    29     9    10   ar
    30    10    11   ar
    31    30    31   ar
    32    31    32   ar
    33    32    27   ar
    34    26    20   ar
    35    11     6   ar
    36     2     5    1
@<TRIPOS>MOLECULE
*****
 34 36 0 0 0
SMALL
GASTEIGER

@<TRIPOS>ATOM
      1 C         142.5262  142.1821  161.8735 C.3     1  UNL1        0.0944
      2 N         142.3537  141.6279  163.2567 N.am    1  UNL1       -0.3005
      3 C         143.2643  142.0736  164.3622 C.2     1  UNL1        0.2474
      4 O         144.3474  143.0735  164.0846 O.2     1  UNL1       -0.2701
      5 H         141.6428  140.9716  163.4389 H       1  UNL1        0.1498
      6 C         143.0917  141.5193  165.7453 C.ar    1  UNL1        0.0727
      7 C         143.1723  142.4308  166.9340 C.ar    1  UNL1        0.0109
      8 C         142.9998  141.8765  168.3171 C.ar    1  UNL1        0.0579
      9 C         142.7467  140.4109  168.5116 C.ar    1  UNL1        0.2249
     10 N         142.6661  139.4995  167.3230 N.ar    1  UNL1       -0.2100
     11 C         142.8387  140.0537  165.9398 C.ar    1  UNL1        0.1065
     12 O         142.5742  139.8567  169.8947 O.3     1  UNL1       -0.4599
     13 C         142.1742  140.7627  171.0213 C.3     1  UNL1        0.2159
     14 C         140.7595  141.2503  171.1256 C.3     1  UNL1        0.1505
     15 C         139.6882  140.6306  170.2779 C.3     1  UNL1        0.4014
     16 F         138.6170  140.0109  169.4304 F       1  UNL1       -0.1699
     17 F         139.7616  141.7943  169.3344 F       1  UNL1       -0.1699
     18 F         139.6149  139.4669  171.2215 F       1  UNL1       -0.1699
     19 C         141.5952  143.2450  161.3699 C.3     1  UNL1        0.0484
     20 C         139.0568  142.8821  161.7882 C.ar    1  UNL1       -0.0001
     21 C         137.8065  143.2066  162.5507 C.ar    1  UNL1       -0.0002
     22 C         137.8442  144.2186  163.6572 C.ar    1  UNL1        0.0008
     23 C         139.1322  144.9060  164.0014 C.ar    1  UNL1        0.0111
     24 C         140.3825  144.5815  163.2390 C.ar    1  UNL1        0.0537
     25 CL        141.6706  145.2689  163.5831 Cl      1  UNL1       -0.0826
     26 C         140.3448  143.5695  162.1324 C.ar    1  UNL1       -0.0098
     27 C         138.9438  139.8462  158.4685 C.ar    1  UNL1        0.3201
     28 N         139.2206  139.4083  159.8762 N.ar    1  UNL1       -0.1927
     29 C         139.2583  140.4203  160.9828 C.ar    1  UNL1        0.1051
     30 C         139.0192  141.8701  160.6817 C.ar    1  UNL1        0.0383
     31 C         138.7424  142.3080  159.2740 C.ar    1  UNL1        0.1051
     32 N         138.7047  141.2960  158.1674 N.ar    1  UNL1       -0.1927
     33 C         140.0835  137.9348  157.1277 C.3     1  UNL1        0.2559
     34 O         138.9062  138.8342  157.3619 O.3     1  UNL1       -0.4426
@<TRIPOS>BOND
     1    33    34    1
     2    34    27    1
     3    27    28   ar
     4    28    29   ar
     5    29    30   ar
     6    30    20    1
     7    20    21   ar
     8    21    22   ar
     9    22    23   ar
    10    23    24   ar
    11    24    25    1
    12    24    26   ar
    13    26    19    1
    14    19     1    1
    15     1     2    1
    16     2     3   am
    17     3     4    2
    18     3     6    1
    19     6     7   ar
    20     7     8   ar
    21     8     9   ar
    22     9    12    1
    23    12    13    1
    24    13    14    1
    25    14    15    1
    26    15    16    1
    27    15    17    1
    28    15    18    1
    29     9    10   ar
    30    10    11   ar
    31    30    31   ar
    32    31    32   ar
    33    32    27   ar
    34    26    20   ar
    35    11     6   ar
    36     2     5    1
@<TRIPOS>MOLECULE
*****
 34 36 0 0 0
SMALL
GASTEIGER

@<TRIPOS>ATOM
      1 C         139.4875  142.6757  164.7828 C.3     1  UNL1        0.0944
      2 N         139.7731  143.4486  163.5294 N.am    1  UNL1       -0.3005
      3 C         140.7409  142.9080  162.5190 C.2     1  UNL1        0.2474
      4 O         141.4232  141.5944  162.7619 O.2     1  UNL1       -0.2701
      5 H         139.3253  144.3107  163.3699 H       1  UNL1        0.1498
      6 C         141.0264  143.6809  161.2656 C.ar    1  UNL1        0.0727
      7 C         140.0393  144.6952  160.7686 C.ar    1  UNL1        0.0109
      8 C         140.3248  145.4681  159.5152 C.ar    1  UNL1        0.0579
      9 C         141.5974  145.2268  158.7587 C.ar    1  UNL1        0.2249
     10 N         142.5845  144.2126  159.2556 N.ar    1  UNL1       -0.2100
     11 C         142.2990  143.4396  160.5091 C.ar    1  UNL1        0.1065
     12 O         141.8829  145.9997  157.5053 O.3     1  UNL1       -0.4599
     13 C         141.1927  145.6337  156.2248 C.3     1  UNL1        0.2159
     14 C         140.3517  146.6490  155.5094 C.3     1  UNL1        0.1505
     15 C         138.9216  146.3394  155.1787 C.3     1  UNL1        0.4014
     16 F         137.4917  146.0299  154.8481 F       1  UNL1       -0.1699
     17 F         138.5256  147.7254  155.5938 F       1  UNL1       -0.1699
     18 F         139.3176  144.9535  154.7636 F       1  UNL1       -0.1699
     19 C         138.3388  141.7120  164.8245 C.3     1  UNL1        0.0484
     20 C         139.0602  139.2326  165.1111 C.ar    1  UNL1       -0.0001
     21 C         139.2184  137.8521  164.5461 C.ar    1  UNL1       -0.0002
     22 C         138.8136  137.5706  163.1294 C.ar    1  UNL1        0.0008
     23 C         138.2506  138.6695  162.2778 C.ar    1  UNL1        0.0111
     24 C         138.0923  140.0500  162.8428 C.ar    1  UNL1        0.0537
     25 CL        137.5292  141.1490  161.9912 Cl      1  UNL1       -0.0826
     26 C         138.4971  140.3315  164.2595 C.ar    1  UNL1       -0.0098
     27 C         140.2746  140.0772  169.3610 C.ar    1  UNL1        0.3201
     28 N         141.2822  140.1929  168.2559 N.ar    1  UNL1       -0.1927
     29 C         140.8774  139.9113  166.8393 C.ar    1  UNL1        0.1051
     30 C         139.4650  139.5141  166.5277 C.ar    1  UNL1        0.0383
     31 C         138.4573  139.3984  167.6328 C.ar    1  UNL1        0.1051
     32 N         138.8621  139.6800  169.0494 N.ar    1  UNL1       -0.1927
     33 C         141.1574  141.7272  171.1632 C.3     1  UNL1        0.2559
     34 O         140.6794  140.3587  170.7776 O.3     1  UNL1       -0.4426
@<TRIPOS>BOND
     1    33    34    1
     2    34    27    1
     3    27    28   ar
     4    28    29   ar
     5    29    30   ar
     6    30    20    1
     7    20    21   ar
     8    21    22   ar
     9    22    23   ar
    10    23    24   ar
    11    24    25    1
    12    24    26   ar
    13    26    19    1
    14    19     1    1
    15     1     2    1
    16     2     3   am
    17     3     4    2
    18     3     6    1
    19     6     7   ar
    20     7     8   ar
    21     8     9   ar
    22     9    12    1
    23    12    13    1
    24    13    14    1
    25    14    15    1
    26    15    16    1
    27    15    17    1
    28    15    18    1
    29     9    10   ar
    30    10    11   ar
    31    30    31   ar
    32    31    32   ar
    33    32    27   ar
    34    26    20   ar
    35    11     6   ar
    36     2     5    1
@<TRIPOS>MOLECULE
*****
 34 36 0 0 0
SMALL
GASTEIGER

@<TRIPOS>ATOM
      1 C         143.2913  140.5066  166.0411 C.3     1  UNL1        0.0944
      2 N         143.0364  140.0807  164.6256 N.am    1  UNL1       -0.3005
      3 C         144.1689  140.0247  163.6437 C.2     1  UNL1        0.2474
      4 O         145.5564  140.3946  164.0773 O.2     1  UNL1       -0.2701
      5 H         142.1257  139.8380  164.3410 H       1  UNL1        0.1498
      6 C         143.9140  139.5989  162.2282 C.ar    1  UNL1        0.0727
      7 C         143.5607  138.1726  161.9261 C.ar    1  UNL1        0.0109
      8 C         143.3058  137.7468  160.5107 C.ar    1  UNL1        0.0579
      9 C         143.4040  138.7470  159.3972 C.ar    1  UNL1        0.2249
     10 N         143.7572  140.1732  159.6992 N.ar    1  UNL1       -0.2100
     11 C         144.0122  140.5992  161.1148 C.ar    1  UNL1        0.1065
     12 O         143.1490  138.3212  157.9818 O.3     1  UNL1       -0.4599
     13 C         142.6929  136.9223  157.6900 C.3     1  UNL1        0.2159
     14 C         142.9699  136.3071  156.3504 C.3     1  UNL1        0.1505
     15 C         142.1891  135.1082  155.8996 C.3     1  UNL1        0.4014
     16 F         141.4082  133.9095  155.4488 F       1  UNL1       -0.1699
     17 F         143.4532  134.3022  155.8533 F       1  UNL1       -0.1699
     18 F         140.9249  135.9143  155.9459 F       1  UNL1       -0.1699
     19 C         143.1647  141.9514  166.4240 C.3     1  UNL1        0.0484
     20 C         140.7840  142.9316  166.0755 C.ar    1  UNL1       -0.0001
     21 C         139.8455  143.8275  165.3230 C.ar    1  UNL1       -0.0002
     22 C         140.3489  144.6391  164.1663 C.ar    1  UNL1        0.0008
     23 C         141.7909  144.5547  163.7622 C.ar    1  UNL1        0.0111
     24 C         142.7295  143.6588  164.5147 C.ar    1  UNL1        0.0537
     25 CL        144.1717  143.5745  164.1106 Cl      1  UNL1       -0.0826
     26 C         142.2261  142.8473  165.6714 C.ar    1  UNL1       -0.0098
     27 C         139.2737  140.4970  169.5456 C.ar    1  UNL1        0.3201
     28 N         139.2070  139.9412  168.1540 N.ar    1  UNL1       -0.1927
     29 C         139.7104  140.7527  166.9973 C.ar    1  UNL1        0.1051
     30 C         140.2806  142.1201  167.2322 C.ar    1  UNL1        0.0383
     31 C         140.3472  142.6759  168.6238 C.ar    1  UNL1        0.1051
     32 N         139.8438  141.8643  169.7805 N.ar    1  UNL1       -0.1927
     33 C         137.3301  139.2692  170.7560 C.3     1  UNL1        0.2559
     34 O         138.7702  139.6854  170.7023 O.3     1  UNL1       -0.4426
@<TRIPOS>BOND
     1    33    34    1
     2    34    27    1
     3    27    28   ar
     4    28    29   ar
     5    29    30   ar
     6    30    20    1
     7    20    21   ar
     8    21    22   ar
     9    22    23   ar
    10    23    24   ar
    11    24    25    1
    12    24    26   ar
    13    26    19    1
    14    19     1    1
    15     1     2    1
    16     2     3   am
    17     3     4    2
    18     3     6    1
    19     6     7   ar
    20     7     8   ar
    21     8     9   ar
    22     9    12    1
    23    12    13    1
    24    13    14    1
    25    14    15    1
    26    15    16    1
    27    15    17    1
    28    15    18    1
    29     9    10   ar
    30    10    11   ar
    31    30    31   ar
    32    31    32   ar
    33    32    27   ar
    34    26    20   ar
    35    11     6   ar
    36     2     5    1
@<TRIPOS>MOLECULE
*****
 34 36 0 0 0
SMALL
GASTEIGER

@<TRIPOS>ATOM
      1 C         142.5179  142.4668  166.0700 C.3     1  UNL1        0.0944
      2 N         141.8689  142.9301  164.7994 N.am    1  UNL1       -0.3005
      3 C         142.4930  144.0332  163.9974 C.2     1  UNL1        0.2474
      4 O         143.7662  144.6732  164.4657 O.2     1  UNL1       -0.2701
      5 H         141.0332  142.5100  164.4920 H       1  UNL1        0.1498
      6 C         141.8440  144.4964  162.7269 C.ar    1  UNL1        0.0727
      7 C         140.6161  145.3563  162.7822 C.ar    1  UNL1        0.0109
      8 C         139.9670  145.8195  161.5117 C.ar    1  UNL1        0.0579
      9 C         140.5458  145.4229  160.1859 C.ar    1  UNL1        0.2249
     10 N         141.7736  144.5630  160.1306 N.ar    1  UNL1       -0.2100
     11 C         142.4227  144.0998  161.4011 C.ar    1  UNL1        0.1065
     12 O         139.8968  145.8861  158.9154 O.3     1  UNL1       -0.4599
     13 C         140.6797  145.9029  157.6361 C.3     1  UNL1        0.2159
     14 C         140.0194  145.5116  156.3474 C.3     1  UNL1        0.1505
     15 C         139.2837  146.5391  155.5393 C.3     1  UNL1        0.4014
     16 F         138.5480  147.5666  154.7312 F       1  UNL1       -0.1699
     17 F         138.0279  145.7260  155.6486 F       1  UNL1       -0.1699
     18 F         140.5394  147.3522  155.4300 F       1  UNL1       -0.1699
     19 C         142.2768  141.0736  166.5706 C.3     1  UNL1        0.0484
     20 C         140.0180  140.3105  167.6029 C.ar    1  UNL1       -0.0001
     21 C         139.1491  140.0853  168.8047 C.ar    1  UNL1       -0.0002
     22 C         139.6702  140.3979  170.1761 C.ar    1  UNL1        0.0008
     23 C         141.0602  140.9358  170.3457 C.ar    1  UNL1        0.0111
     24 C         141.9290  141.1610  169.1439 C.ar    1  UNL1        0.0537
     25 CL        143.3190  141.6988  169.3134 Cl      1  UNL1       -0.0826
     26 C         141.4079  140.8483  167.7725 C.ar    1  UNL1       -0.0098
     27 C         138.4547  139.3726  163.4887 C.ar    1  UNL1        0.3201
     28 N         138.3116  140.7571  164.0478 N.ar    1  UNL1       -0.1927
     29 C         138.8327  141.0698  165.4192 C.ar    1  UNL1        0.1051
     30 C         139.4969  139.9979  166.2315 C.ar    1  UNL1        0.0383
     31 C         139.6399  138.6134  165.6724 C.ar    1  UNL1        0.1051
     32 N         139.1188  138.3007  164.3011 N.ar    1  UNL1       -0.1927
     33 C         138.7552  138.2333  161.1732 C.3     1  UNL1        0.2559
     34 O         137.9336  139.0600  162.1173 O.3     1  UNL1       -0.4426
@<TRIPOS>BOND
     1    33    34    1
     2    34    27    1
     3    27    28   ar
     4    28    29   ar
     5    29    30   ar
     6    30    20    1
     7    20    21   ar
     8    21    22   ar
     9    22    23   ar
    10    23    24   ar
    11    24    25    1
    12    24    26   ar
    13    26    19    1
    14    19     1    1
    15     1     2    1
    16     2     3   am
    17     3     4    2
    18     3     6    1
    19     6     7   ar
    20     7     8   ar
    21     8     9   ar
    22     9    12    1
    23    12    13    1
    24    13    14    1
    25    14    15    1
    26    15    16    1
    27    15    17    1
    28    15    18    1
    29     9    10   ar
    30    10    11   ar
    31    30    31   ar
    32    31    32   ar
    33    32    27   ar
    34    26    20   ar
    35    11     6   ar
    36     2     5    1
