@<TRIPOS>MOLECULE
*****
 35 38 0 0 0
SMALL
GASTEIGER

@<TRIPOS>ATOM
      1 C         139.9046  142.8649  164.7923 C.3     1  UNL1        0.0188
      2 C         140.8174  141.9971  165.6070 C.3     1  UNL1        0.0188
      3 C         140.3675  140.6329  166.0389 C.3     1  UNL1        0.0724
      4 N         139.0047  140.1365  165.6562 N.3     1  UNL1       -0.2691
      5 C         138.0918  141.0044  164.8416 C.3     1  UNL1        0.0724
      6 C         138.5418  142.3685  164.4096 C.3     1  UNL1        0.0188
      7 C         140.3546  144.2290  164.3604 C.3     1  UNL1        0.0721
      8 C         141.2768  145.0274  160.0289 C.3     1  UNL1        0.1687
      9 C         140.1506  145.7542  160.7022 C.3     1  UNL1        0.0609
     10 C         139.8432  145.4880  162.1461 C.3     1  UNL1        0.0758
     11 N         140.6620  144.4952  162.9166 N.3     1  UNL1       -0.2724
     12 C         141.7883  143.7684  162.2433 C.3     1  UNL1        0.0758
     13 C         142.0957  144.0345  160.7994 C.3     1  UNL1        0.0609
     14 O         141.5842  145.2936  158.5851 O.3     1  UNL1       -0.4782
     15 C         138.2885  142.4216  155.7761 C.3     1  UNL1        0.0329
     16 C         138.8487  143.7613  156.1521 C.ar    1  UNL1        0.0023
     17 C         138.3214  145.0047  155.4996 C.ar    1  UNL1        0.0547
     18 CL        137.2337  144.9084  154.4711 Cl      1  UNL1       -0.0825
     19 C         138.8816  146.3444  155.8756 C.ar    1  UNL1        0.0142
     20 C         139.9692  146.4407  156.9041 C.ar    1  UNL1        0.0386
     21 C         140.4966  145.1973  157.5566 C.ar    1  UNL1        0.1485
     22 C         139.9363  143.8576  157.1806 C.ar    1  UNL1        0.0884
     23 CL        140.4638  142.6142  157.8331 Cl      1  UNL1       -0.0794
     24 C         138.5547  138.7724  166.0882 C.3     1  UNL1        0.0987
     25 C         137.7781  138.6068  167.3608 C.2     1  UNL1        0.0652
     26 O         136.5934  137.6878  167.4023 O.co2   1  UNL1       -0.5478
     27 O         138.1863  139.3603  168.5919 O.co2   1  UNL1       -0.5478
     28 C         138.8814  137.5738  165.2476 C.3     1  UNL1        0.0480
     29 C         139.5183  137.7529  163.9014 C.ar    1  UNL1       -0.0203
     30 C         141.0082  137.6561  163.7577 C.ar    1  UNL1       -0.0019
     31 C         141.6450  137.8352  162.4114 C.ar    1  UNL1        0.0293
     32 C         140.7920  138.1111  161.2089 C.ar    1  UNL1        0.1401
     33 F         141.4289  138.2902  159.8627 F       1  UNL1       -0.2042
     34 C         139.3021  138.2079  161.3526 C.ar    1  UNL1        0.0293
     35 C         138.6652  138.0288  162.6988 C.ar    1  UNL1       -0.0019
@<TRIPOS>UNITY_ATOM_ATTR
26 1
charge -1
@<TRIPOS>BOND
     1    15    16    1
     2    16    17   ar
     3    17    18    1
     4    17    19   ar
     5    19    20   ar
     6    20    21   ar
     7    21    14    1
     8    14     8    1
     9     8     9    1
    10     9    10    1
    11    10    11    1
    12    11     7    1
    13     7     1    1
    14     1     2    1
    15     2     3    1
    16     3     4    1
    17     4    24    1
    18    24    28    1
    19    28    29    1
    20    29    30   ar
    21    30    31   ar
    22    31    32   ar
    23    32    33    1
    24    32    34   ar
    25    34    35   ar
    26    24    25    1
    27    25    26   ar
    28    25    27   ar
    29     4     5    1
    30     5     6    1
    31    11    12    1
    32    12    13    1
    33    21    22   ar
    34    22    23    1
    35    22    16   ar
    36    13     8    1
    37     6     1    1
    38    35    29   ar
@<TRIPOS>MOLECULE
*****
 35 38 0 0 0
SMALL
GASTEIGER

@<TRIPOS>ATOM
      1 C         139.4419  139.3423  161.8264 C.3     1  UNL1        0.0188
      2 C         139.5167  140.6548  162.5488 C.3     1  UNL1        0.0188
      3 C         139.7074  140.6822  164.0364 C.3     1  UNL1        0.0724
      4 N         139.8232  139.3973  164.8016 N.3     1  UNL1       -0.2691
      5 C         139.7484  138.0848  164.0792 C.3     1  UNL1        0.0724
      6 C         139.5577  138.0573  162.5916 C.3     1  UNL1        0.0188
      7 C         139.2513  139.3149  160.3388 C.3     1  UNL1        0.0721
      8 C         142.3952  137.4685  157.7012 C.3     1  UNL1        0.1687
      9 C         140.9956  137.6427  157.1906 C.3     1  UNL1        0.0609
     10 C         139.9476  138.2581  158.0699 C.3     1  UNL1        0.0758
     11 N         140.2993  138.6994  159.4596 N.3     1  UNL1       -0.2724
     12 C         141.6989  138.5253  159.9703 C.3     1  UNL1        0.0758
     13 C         142.7469  137.9099  159.0911 C.3     1  UNL1        0.0609
     14 O         143.4432  136.8531  156.8221 O.3     1  UNL1       -0.4782
     15 C         142.9292  131.6884  156.5724 C.3     1  UNL1        0.0329
     16 C         142.8725  133.0331  155.9100 C.ar    1  UNL1        0.0023
     17 C         142.5019  133.1400  154.4605 C.ar    1  UNL1        0.0547
     18 CL        142.1881  131.9023  153.6732 Cl      1  UNL1       -0.0825
     19 C         142.4451  134.4847  153.7981 C.ar    1  UNL1        0.0142
     20 C         142.7589  135.7223  154.5853 C.ar    1  UNL1        0.0386
     21 C         143.1294  135.6154  156.0348 C.ar    1  UNL1        0.1485
     22 C         143.1862  134.2708  156.6972 C.ar    1  UNL1        0.0884
     23 CL        143.5568  134.1638  158.1468 Cl      1  UNL1       -0.0794
     24 C         140.0138  139.4248  166.2892 C.3     1  UNL1        0.0987
     25 C         138.8276  139.3055  167.1996 C.2     1  UNL1        0.0652
     26 O         138.9602  139.6505  168.6533 O.co2   1  UNL1       -0.5478
     27 O         137.5089  138.8411  166.6563 O.co2   1  UNL1       -0.5478
     28 C         141.3905  139.5717  166.8663 C.3     1  UNL1        0.0480
     29 C         142.5323  139.9862  165.9864 C.ar    1  UNL1       -0.0203
     30 C         143.3294  138.9484  165.2533 C.ar    1  UNL1       -0.0019
     31 C         144.4713  139.3630  164.3733 C.ar    1  UNL1        0.0293
     32 C         144.8160  140.8154  164.2265 C.ar    1  UNL1        0.1401
     33 F         145.9579  141.2300  163.3466 F       1  UNL1       -0.2042
     34 C         144.0189  141.8532  164.9596 C.ar    1  UNL1        0.0293
     35 C         142.8771  141.4386  165.8395 C.ar    1  UNL1       -0.0019
@<TRIPOS>UNITY_ATOM_ATTR
26 1
charge -1
@<TRIPOS>BOND
     1    15    16    1
     2    16    17   ar
     3    17    18    1
     4    17    19   ar
     5    19    20   ar
     6    20    21   ar
     7    21    14    1
     8    14     8    1
     9     8     9    1
    10     9    10    1
    11    10    11    1
    12    11     7    1
    13     7     1    1
    14     1     2    1
    15     2     3    1
    16     3     4    1
    17     4    24    1
    18    24    28    1
    19    28    29    1
    20    29    30   ar
    21    30    31   ar
    22    31    32   ar
    23    32    33    1
    24    32    34   ar
    25    34    35   ar
    26    24    25    1
    27    25    26   ar
    28    25    27   ar
    29     4     5    1
    30     5     6    1
    31    11    12    1
    32    12    13    1
    33    21    22   ar
    34    22    23    1
    35    22    16   ar
    36    13     8    1
    37     6     1    1
    38    35    29   ar
@<TRIPOS>MOLECULE
*****
 35 38 0 0 0
SMALL
GASTEIGER

@<TRIPOS>ATOM
      1 C         143.1659  141.4346  165.5162 C.3     1  UNL1        0.0188
      2 C         142.1128  142.4034  165.9657 C.3     1  UNL1        0.0188
      3 C         140.9685  141.9284  166.8113 C.3     1  UNL1        0.0724
      4 N         140.8774  140.4846  167.2074 N.3     1  UNL1       -0.2691
      5 C         141.9306  139.5156  166.7579 C.3     1  UNL1        0.0724
      6 C         143.0749  139.9906  165.9123 C.3     1  UNL1        0.0188
      7 C         144.3102  141.9095  164.6706 C.3     1  UNL1        0.0721
      8 C         143.8481  142.1732  160.2022 C.3     1  UNL1        0.1687
      9 C         144.2937  140.8886  160.8356 C.3     1  UNL1        0.0609
     10 C         144.4477  140.8007  162.3251 C.3     1  UNL1        0.0758
     11 N         144.1562  141.9974  163.1811 N.3     1  UNL1       -0.2724
     12 C         143.7106  143.2820  162.5477 C.3     1  UNL1        0.0758
     13 C         143.5566  143.3699  161.0583 C.3     1  UNL1        0.0609
     14 O         143.6941  142.2611  158.7127 O.3     1  UNL1       -0.4782
     15 C         146.0057  140.7566  154.3090 C.3     1  UNL1        0.0329
     16 C         146.0618  141.4689  155.6278 C.ar    1  UNL1        0.0023
     17 C         147.3298  142.1414  156.0637 C.ar    1  UNL1        0.0547
     18 CL        148.5418  142.1015  155.1807 Cl      1  UNL1       -0.0825
     19 C         147.3859  142.8537  157.3826 C.ar    1  UNL1        0.0142
     20 C         146.1740  142.8936  158.2656 C.ar    1  UNL1        0.0386
     21 C         144.9061  142.2212  157.8297 C.ar    1  UNL1        0.1485
     22 C         144.8500  141.5089  156.5108 C.ar    1  UNL1        0.0884
     23 CL        143.5819  140.8364  156.0750 Cl      1  UNL1       -0.0794
     24 C         139.7331  140.0096  168.0530 C.3     1  UNL1        0.0987
     25 C         139.7840  140.1719  169.5434 C.2     1  UNL1        0.0652
     26 O         141.0335  139.8182  170.2941 O.co2   1  UNL1       -0.5478
     27 O         138.5853  140.6879  170.2830 O.co2   1  UNL1       -0.5478
     28 C         138.5380  139.3724  167.4083 C.3     1  UNL1        0.0480
     29 C         138.5060  139.1704  165.9224 C.ar    1  UNL1       -0.0203
     30 C         138.0981  140.2976  165.0208 C.ar    1  UNL1       -0.0019
     31 C         138.0661  140.0956  163.5348 C.ar    1  UNL1        0.0293
     32 C         138.4420  138.7663  162.9504 C.ar    1  UNL1        0.1401
     33 F         138.4100  138.5642  161.4644 F       1  UNL1       -0.2042
     34 C         138.8500  137.6390  163.8519 C.ar    1  UNL1        0.0293
     35 C         138.8820  137.8411  165.3379 C.ar    1  UNL1       -0.0019
@<TRIPOS>UNITY_ATOM_ATTR
26 1
charge -1
@<TRIPOS>BOND
     1    15    16    1
     2    16    17   ar
     3    17    18    1
     4    17    19   ar
     5    19    20   ar
     6    20    21   ar
     7    21    14    1
     8    14     8    1
     9     8     9    1
    10     9    10    1
    11    10    11    1
    12    11     7    1
    13     7     1    1
    14     1     2    1
    15     2     3    1
    16     3     4    1
    17     4    24    1
    18    24    28    1
    19    28    29    1
    20    29    30   ar
    21    30    31   ar
    22    31    32   ar
    23    32    33    1
    24    32    34   ar
    25    34    35   ar
    26    24    25    1
    27    25    26   ar
    28    25    27   ar
    29     4     5    1
    30     5     6    1
    31    11    12    1
    32    12    13    1
    33    21    22   ar
    34    22    23    1
    35    22    16   ar
    36    13     8    1
    37     6     1    1
    38    35    29   ar
@<TRIPOS>MOLECULE
*****
 35 38 0 0 0
SMALL
GASTEIGER

@<TRIPOS>ATOM
      1 C         138.9109  139.4123  161.0857 C.3     1  UNL1        0.0188
      2 C         139.0330  138.1076  161.8155 C.3     1  UNL1        0.0188
      3 C         138.9663  138.0772  163.3137 C.3     1  UNL1        0.0724
      4 N         138.7775  139.3515  164.0821 N.3     1  UNL1       -0.2691
      5 C         138.6554  140.6563  163.3522 C.3     1  UNL1        0.0724
      6 C         138.7221  140.6868  161.8540 C.3     1  UNL1        0.0188
      7 C         138.9776  139.4427  159.5875 C.3     1  UNL1        0.0721
      8 C         142.3313  137.3457  157.4414 C.3     1  UNL1        0.1687
      9 C         140.9466  137.3310  156.8647 C.3     1  UNL1        0.0609
     10 C         139.8287  138.0300  157.5801 C.3     1  UNL1        0.0758
     11 N         140.0955  138.7437  158.8721 N.3     1  UNL1       -0.2724
     12 C         141.4801  138.7584  159.4489 C.3     1  UNL1        0.0758
     13 C         142.5980  138.0594  158.7336 C.3     1  UNL1        0.0609
     14 O         143.4491  136.6466  156.7261 O.3     1  UNL1       -0.4782
     15 C         143.1770  131.4609  156.9118 C.3     1  UNL1        0.0329
     16 C         143.0628  132.7409  156.1380 C.ar    1  UNL1        0.0023
     17 C         142.6982  132.7079  154.6834 C.ar    1  UNL1        0.0547
     18 CL        142.4479  131.3950  154.0025 Cl      1  UNL1       -0.0825
     19 C         142.5839  133.9879  153.9097 C.ar    1  UNL1        0.0142
     20 C         142.8342  135.3008  154.5906 C.ar    1  UNL1        0.0386
     21 C         143.1988  135.3337  156.0452 C.ar    1  UNL1        0.1485
     22 C         143.3131  134.0538  156.8189 C.ar    1  UNL1        0.0884
     23 CL        143.6777  134.0868  158.2736 Cl      1  UNL1       -0.0794
     24 C         138.7108  139.3211  165.5803 C.3     1  UNL1        0.0987
     25 C         138.0228  138.1850  166.2775 C.2     1  UNL1        0.0652
     26 O         137.0337  138.4642  167.3700 O.co2   1  UNL1       -0.5478
     27 O         138.3239  136.7698  165.8821 O.co2   1  UNL1       -0.5478
     28 C         139.3321  140.4267  166.3813 C.3     1  UNL1        0.0480
     29 C         140.3017  140.1039  167.4793 C.ar    1  UNL1       -0.0203
     30 C         139.8538  140.1408  168.9103 C.ar    1  UNL1       -0.0019
     31 C         140.8234  139.8180  170.0083 C.ar    1  UNL1        0.0293
     32 C         142.2410  139.4583  169.6752 C.ar    1  UNL1        0.1401
     33 F         143.2107  139.1355  170.7732 F       1  UNL1       -0.2042
     34 C         142.6890  139.4215  168.2442 C.ar    1  UNL1        0.0293
     35 C         141.7193  139.7443  167.1462 C.ar    1  UNL1       -0.0019
@<TRIPOS>UNITY_ATOM_ATTR
26 1
charge -1
@<TRIPOS>BOND
     1    15    16    1
     2    16    17   ar
     3    17    18    1
     4    17    19   ar
     5    19    20   ar
     6    20    21   ar
     7    21    14    1
     8    14     8    1
     9     8     9    1
    10     9    10    1
    11    10    11    1
    12    11     7    1
    13     7     1    1
    14     1     2    1
    15     2     3    1
    16     3     4    1
    17     4    24    1
    18    24    28    1
    19    28    29    1
    20    29    30   ar
    21    30    31   ar
    22    31    32   ar
    23    32    33    1
    24    32    34   ar
    25    34    35   ar
    26    24    25    1
    27    25    26   ar
    28    25    27   ar
    29     4     5    1
    30     5     6    1
    31    11    12    1
    32    12    13    1
    33    21    22   ar
    34    22    23    1
    35    22    16   ar
    36    13     8    1
    37     6     1    1
    38    35    29   ar
@<TRIPOS>MOLECULE
*****
 35 38 0 0 0
SMALL
GASTEIGER

@<TRIPOS>ATOM
      1 C         142.8853  141.7707  165.7739 C.3     1  UNL1        0.0188
      2 C         141.7366  142.6398  166.1926 C.3     1  UNL1        0.0188
      3 C         140.5951  142.0519  166.9681 C.3     1  UNL1        0.0724
      4 N         140.6022  140.5950  167.3249 N.3     1  UNL1       -0.2691
      5 C         141.7509  139.7259  166.9062 C.3     1  UNL1        0.0724
      6 C         142.8924  140.3138  166.1307 C.3     1  UNL1        0.0188
      7 C         144.0268  142.3586  164.9985 C.3     1  UNL1        0.0721
      8 C         143.5456  143.2508  160.6142 C.3     1  UNL1        0.1687
      9 C         142.7212  143.9914  161.6251 C.3     1  UNL1        0.0609
     10 C         142.8817  143.6940  163.0866 C.3     1  UNL1        0.0758
     11 N         143.8664  142.6560  163.5371 N.3     1  UNL1       -0.2724
     12 C         144.6907  141.9154  162.5261 C.3     1  UNL1        0.0758
     13 C         144.5303  142.2128  161.0647 C.3     1  UNL1        0.0609
     14 O         143.3852  143.5482  159.1527 O.3     1  UNL1       -0.4782
     15 C         139.5677  145.6506  156.3231 C.3     1  UNL1        0.0329
     16 C         140.1258  144.4914  157.0944 C.ar    1  UNL1        0.0023
     17 C         139.3333  143.2243  157.2221 C.ar    1  UNL1        0.0547
     18 CL        137.9826  143.1163  156.5785 Cl      1  UNL1       -0.0825
     19 C         139.8914  142.0652  157.9934 C.ar    1  UNL1        0.0142
     20 C         141.2420  142.1731  158.6369 C.ar    1  UNL1        0.0386
     21 C         142.0345  143.4402  158.5092 C.ar    1  UNL1        0.1485
     22 C         141.4764  144.5994  157.7379 C.ar    1  UNL1        0.0884
     23 CL        142.2689  145.8665  157.6102 Cl      1  UNL1       -0.0794
     24 C         139.4607  140.0071  168.1003 C.3     1  UNL1        0.0987
     25 C         139.3623  140.2358  169.5796 C.2     1  UNL1        0.0652
     26 O         138.0900  139.9128  170.3054 O.co2   1  UNL1       -0.5478
     27 O         140.5363  140.7874  170.3329 O.co2   1  UNL1       -0.5478
     28 C         138.4176  139.1906  167.3966 C.3     1  UNL1        0.0480
     29 C         138.4357  139.0788  165.9009 C.ar    1  UNL1       -0.0203
     30 C         138.8597  137.7958  165.2498 C.ar    1  UNL1       -0.0019
     31 C         138.8778  137.6839  163.7541 C.ar    1  UNL1        0.0293
     32 C         138.4719  138.8551  162.9094 C.ar    1  UNL1        0.1401
     33 F         138.4900  138.7433  161.4137 F       1  UNL1       -0.2042
     34 C         138.0478  140.1382  163.5605 C.ar    1  UNL1        0.0293
     35 C         138.0297  140.2500  165.0562 C.ar    1  UNL1       -0.0019
@<TRIPOS>UNITY_ATOM_ATTR
26 1
charge -1
@<TRIPOS>BOND
     1    15    16    1
     2    16    17   ar
     3    17    18    1
     4    17    19   ar
     5    19    20   ar
     6    20    21   ar
     7    21    14    1
     8    14     8    1
     9     8     9    1
    10     9    10    1
    11    10    11    1
    12    11     7    1
    13     7     1    1
    14     1     2    1
    15     2     3    1
    16     3     4    1
    17     4    24    1
    18    24    28    1
    19    28    29    1
    20    29    30   ar
    21    30    31   ar
    22    31    32   ar
    23    32    33    1
    24    32    34   ar
    25    34    35   ar
    26    24    25    1
    27    25    26   ar
    28    25    27   ar
    29     4     5    1
    30     5     6    1
    31    11    12    1
    32    12    13    1
    33    21    22   ar
    34    22    23    1
    35    22    16   ar
    36    13     8    1
    37     6     1    1
    38    35    29   ar
@<TRIPOS>MOLECULE
*****
 35 38 0 0 0
SMALL
GASTEIGER

@<TRIPOS>ATOM
      1 C         142.9492  141.6353  165.8416 C.3     1  UNL1        0.0188
      2 C         142.9030  140.1830  166.2141 C.3     1  UNL1        0.0188
      3 C         141.7287  139.6404  166.9733 C.3     1  UNL1        0.0724
      4 N         140.6005  140.5501  167.3601 N.3     1  UNL1       -0.2691
      5 C         140.6466  142.0024  166.9877 C.3     1  UNL1        0.0724
      6 C         141.8209  142.5450  166.2284 C.3     1  UNL1        0.0188
      7 C         144.1235  142.1779  165.0823 C.3     1  UNL1        0.0721
      8 C         143.8203  142.8406  160.6418 C.3     1  UNL1        0.1687
      9 C         143.2504  143.8520  161.5917 C.3     1  UNL1        0.0609
     10 C         143.3515  143.6311  163.0719 C.3     1  UNL1        0.0758
     11 N         144.0224  142.3988  163.6022 N.3     1  UNL1       -0.2724
     12 C         144.5923  141.3874  162.6523 C.3     1  UNL1        0.0758
     13 C         144.4913  141.6083  161.1721 C.3     1  UNL1        0.0609
     14 O         143.7192  143.0615  159.1616 O.3     1  UNL1       -0.4782
     15 C         145.6061  139.9434  155.4579 C.3     1  UNL1        0.0329
     16 C         144.4942  140.3323  156.3866 C.ar    1  UNL1        0.0023
     17 C         143.2138  139.5510  156.3920 C.ar    1  UNL1        0.0547
     18 CL        143.0453  138.3807  155.4688 Cl      1  UNL1       -0.0825
     19 C         142.1018  139.9398  157.3207 C.ar    1  UNL1        0.0142
     20 C         142.2703  141.1100  158.2439 C.ar    1  UNL1        0.0386
     21 C         143.5507  141.8913  158.2384 C.ar    1  UNL1        0.1485
     22 C         144.6626  141.5024  157.3097 C.ar    1  UNL1        0.0884
     23 CL        145.9431  142.2838  157.3043 Cl      1  UNL1       -0.0794
     24 C         139.4261  140.0075  168.1194 C.3     1  UNL1        0.0987
     25 C         139.2967  140.2724  169.5902 C.2     1  UNL1        0.0652
     26 O         140.4241  140.9206  170.3376 O.co2   1  UNL1       -0.5478
     27 O         138.0398  139.8890  170.3135 O.co2   1  UNL1       -0.5478
     28 C         138.3812  139.2001  167.4079 C.3     1  UNL1        0.0480
     29 C         138.4126  139.0836  165.9128 C.ar    1  UNL1       -0.0203
     30 C         138.8333  137.7955  165.2695 C.ar    1  UNL1       -0.0019
     31 C         138.8647  137.6790  163.7744 C.ar    1  UNL1        0.0293
     32 C         138.4753  138.8506  162.9225 C.ar    1  UNL1        0.1401
     33 F         138.5067  138.7341  161.4274 F       1  UNL1       -0.2042
     34 C         138.0546  140.1387  163.5658 C.ar    1  UNL1        0.0293
     35 C         138.0232  140.2551  165.0609 C.ar    1  UNL1       -0.0019
@<TRIPOS>UNITY_ATOM_ATTR
26 1
charge -1
@<TRIPOS>BOND
     1    15    16    1
     2    16    17   ar
     3    17    18    1
     4    17    19   ar
     5    19    20   ar
     6    20    21   ar
     7    21    14    1
     8    14     8    1
     9     8     9    1
    10     9    10    1
    11    10    11    1
    12    11     7    1
    13     7     1    1
    14     1     2    1
    15     2     3    1
    16     3     4    1
    17     4    24    1
    18    24    28    1
    19    28    29    1
    20    29    30   ar
    21    30    31   ar
    22    31    32   ar
    23    32    33    1
    24    32    34   ar
    25    34    35   ar
    26    24    25    1
    27    25    26   ar
    28    25    27   ar
    29     4     5    1
    30     5     6    1
    31    11    12    1
    32    12    13    1
    33    21    22   ar
    34    22    23    1
    35    22    16   ar
    36    13     8    1
    37     6     1    1
    38    35    29   ar
@<TRIPOS>MOLECULE
*****
 35 38 0 0 0
SMALL
GASTEIGER

@<TRIPOS>ATOM
      1 C         138.2548  140.7442  164.5917 C.3     1  UNL1        0.0188
      2 C         138.2580  139.5149  165.4511 C.3     1  UNL1        0.0188
      3 C         138.9564  139.5295  166.7785 C.3     1  UNL1        0.0724
      4 N         139.6516  140.7735  167.2465 N.3     1  UNL1       -0.2691
      5 C         139.6485  142.0029  166.3871 C.3     1  UNL1        0.0724
      6 C         138.9501  141.9883  165.0597 C.3     1  UNL1        0.0188
      7 C         137.5564  140.7296  163.2643 C.3     1  UNL1        0.0721
      8 C         139.7756  141.9384  159.5408 C.3     1  UNL1        0.1687
      9 C         138.8018  142.8870  160.1748 C.3     1  UNL1        0.0609
     10 C         138.0621  142.4840  161.4160 C.3     1  UNL1        0.0758
     11 N         138.2961  141.1325  162.0231 N.3     1  UNL1       -0.2724
     12 C         139.2699  140.1840  161.3891 C.3     1  UNL1        0.0758
     13 C         140.0096  140.5869  160.1480 C.3     1  UNL1        0.0609
     14 O         140.5153  142.3413  158.2997 O.3     1  UNL1       -0.4782
     15 C         137.5379  144.7105  154.7610 C.3     1  UNL1        0.0329
     16 C         138.6281  144.7679  155.7896 C.ar    1  UNL1        0.0023
     17 C         139.3199  146.0673  156.0776 C.ar    1  UNL1        0.0547
     18 CL        138.9214  147.3094  155.3368 Cl      1  UNL1       -0.0825
     19 C         140.4101  146.1248  157.1062 C.ar    1  UNL1        0.0142
     20 C         140.8086  144.8828  157.8469 C.ar    1  UNL1        0.0386
     21 C         140.1168  143.5834  157.5590 C.ar    1  UNL1        0.1485
     22 C         139.0266  143.5260  156.5303 C.ar    1  UNL1        0.0884
     23 CL        138.3348  142.2265  156.2424 Cl      1  UNL1       -0.0794
     24 C         140.3500  140.7881  168.5739 C.3     1  UNL1        0.0987
     25 C         139.5575  140.9546  169.8366 C.2     1  UNL1        0.0652
     26 O         138.6872  139.8364  170.3287 O.co2   1  UNL1       -0.5478
     27 O         139.6353  142.2392  170.6070 O.co2   1  UNL1       -0.5478
     28 C         141.8409  140.6362  168.6387 C.3     1  UNL1        0.0480
     29 C         142.6092  140.2466  167.4107 C.ar    1  UNL1       -0.0203
     30 C         142.9746  138.8105  167.1788 C.ar    1  UNL1       -0.0019
     31 C         143.7429  138.4209  165.9508 C.ar    1  UNL1        0.0293
     32 C         144.1457  139.4675  164.9547 C.ar    1  UNL1        0.1401
     33 F         144.9140  139.0780  163.7267 F       1  UNL1       -0.2042
     34 C         143.7803  140.9037  165.1866 C.ar    1  UNL1        0.0293
     35 C         143.0120  141.2933  166.4146 C.ar    1  UNL1       -0.0019
@<TRIPOS>UNITY_ATOM_ATTR
26 1
charge -1
@<TRIPOS>BOND
     1    15    16    1
     2    16    17   ar
     3    17    18    1
     4    17    19   ar
     5    19    20   ar
     6    20    21   ar
     7    21    14    1
     8    14     8    1
     9     8     9    1
    10     9    10    1
    11    10    11    1
    12    11     7    1
    13     7     1    1
    14     1     2    1
    15     2     3    1
    16     3     4    1
    17     4    24    1
    18    24    28    1
    19    28    29    1
    20    29    30   ar
    21    30    31   ar
    22    31    32   ar
    23    32    33    1
    24    32    34   ar
    25    34    35   ar
    26    24    25    1
    27    25    26   ar
    28    25    27   ar
    29     4     5    1
    30     5     6    1
    31    11    12    1
    32    12    13    1
    33    21    22   ar
    34    22    23    1
    35    22    16   ar
    36    13     8    1
    37     6     1    1
    38    35    29   ar
@<TRIPOS>MOLECULE
*****
 35 38 0 0 0
SMALL
GASTEIGER

@<TRIPOS>ATOM
      1 C         139.0982  139.3884  160.7588 C.3     1  UNL1        0.0188
      2 C         139.5792  140.5824  161.5288 C.3     1  UNL1        0.0188
      3 C         139.5211  140.5814  163.0277 C.3     1  UNL1        0.0724
      4 N         138.9821  139.3864  163.7565 N.3     1  UNL1       -0.2691
      5 C         138.5011  138.1923  162.9865 C.3     1  UNL1        0.0724
      6 C         138.5592  138.1933  161.4876 C.3     1  UNL1        0.0188
      7 C         139.1563  139.3894  159.2599 C.3     1  UNL1        0.0721
      8 C         142.3938  137.1002  157.1321 C.3     1  UNL1        0.1687
      9 C         142.6979  137.8082  158.4190 C.3     1  UNL1        0.0609
     10 C         141.6186  138.5713  159.1283 C.3     1  UNL1        0.0758
     11 N         140.2355  138.6264  158.5506 N.3     1  UNL1       -0.2724
     12 C         139.9314  137.9184  157.2636 C.3     1  UNL1        0.0758
     13 C         141.0106  137.1553  156.5544 C.3     1  UNL1        0.0609
     14 O         143.4730  136.3371  156.4228 O.3     1  UNL1       -0.4782
     15 C         142.2406  132.3163  153.3709 C.3     1  UNL1        0.0329
     16 C         142.7175  132.8476  154.6901 C.ar    1  UNL1        0.0023
     17 C         143.0551  131.8997  155.8025 C.ar    1  UNL1        0.0547
     18 CL        142.9157  130.4205  155.5958 Cl      1  UNL1       -0.0825
     19 C         143.5319  132.4310  157.1218 C.ar    1  UNL1        0.0142
     20 C         143.6712  133.9101  157.3285 C.ar    1  UNL1        0.0386
     21 C         143.3337  134.8579  156.2161 C.ar    1  UNL1        0.1485
     22 C         142.8568  134.3267  154.8968 C.ar    1  UNL1        0.0884
     23 CL        142.5192  135.2746  153.7843 Cl      1  UNL1       -0.0794
     24 C         138.9240  139.3853  165.2554 C.3     1  UNL1        0.0987
     25 C         138.2350  138.2662  165.9785 C.2     1  UNL1        0.0652
     26 O         137.1699  138.5702  166.9899 O.co2   1  UNL1       -0.5478
     27 O         138.6113  136.8430  165.6902 O.co2   1  UNL1       -0.5478
     28 C         139.5549  140.5034  166.0312 C.3     1  UNL1        0.0480
     29 C         140.4348  140.1974  167.2069 C.ar    1  UNL1       -0.0203
     30 C         141.8507  139.7533  166.9885 C.ar    1  UNL1       -0.0019
     31 C         142.7306  139.4473  168.1642 C.ar    1  UNL1        0.0293
     32 C         142.1944  139.5854  169.5583 C.ar    1  UNL1        0.1401
     33 F         143.0742  139.2793  170.7340 F       1  UNL1       -0.2042
     34 C         140.7784  140.0294  169.7766 C.ar    1  UNL1        0.0293
     35 C         139.8986  140.3354  168.6009 C.ar    1  UNL1       -0.0019
@<TRIPOS>UNITY_ATOM_ATTR
26 1
charge -1
@<TRIPOS>BOND
     1    15    16    1
     2    16    17   ar
     3    17    18    1
     4    17    19   ar
     5    19    20   ar
     6    20    21   ar
     7    21    14    1
     8    14     8    1
     9     8     9    1
    10     9    10    1
    11    10    11    1
    12    11     7    1
    13     7     1    1
    14     1     2    1
    15     2     3    1
    16     3     4    1
    17     4    24    1
    18    24    28    1
    19    28    29    1
    20    29    30   ar
    21    30    31   ar
    22    31    32   ar
    23    32    33    1
    24    32    34   ar
    25    34    35   ar
    26    24    25    1
    27    25    26   ar
    28    25    27   ar
    29     4     5    1
    30     5     6    1
    31    11    12    1
    32    12    13    1
    33    21    22   ar
    34    22    23    1
    35    22    16   ar
    36    13     8    1
    37     6     1    1
    38    35    29   ar
@<TRIPOS>MOLECULE
*****
 35 38 0 0 0
SMALL
GASTEIGER

@<TRIPOS>ATOM
      1 C         138.8208  142.5285  164.7693 C.3     1  UNL1        0.0188
      2 C         139.5317  143.5026  165.6612 C.3     1  UNL1        0.0188
      3 C         140.1252  143.0372  166.9578 C.3     1  UNL1        0.0724
      4 N         140.0077  141.5976  167.3625 N.3     1  UNL1       -0.2691
      5 C         139.2968  140.6234  166.4705 C.3     1  UNL1        0.0724
      6 C         138.7033  141.0888  165.1739 C.3     1  UNL1        0.0188
      7 C         138.2273  142.9939  163.4727 C.3     1  UNL1        0.0721
      8 C         140.8310  144.9960  160.3966 C.3     1  UNL1        0.1687
      9 C         140.6942  143.5022  160.4058 C.3     1  UNL1        0.0609
     10 C         139.8263  142.8349  161.4312 C.3     1  UNL1        0.0758
     11 N         139.0952  143.6613  162.4473 N.3     1  UNL1       -0.2724
     12 C         139.2319  145.1550  162.4381 C.3     1  UNL1        0.0758
     13 C         140.0998  145.8223  161.4128 C.3     1  UNL1        0.0609
     14 O         141.6989  145.6633  159.3712 O.3     1  UNL1       -0.4782
     15 C         142.8217  143.1634  154.9565 C.3     1  UNL1        0.0329
     16 C         142.0103  144.1802  155.7033 C.ar    1  UNL1        0.0023
     17 C         140.9490  144.9638  154.9897 C.ar    1  UNL1        0.0547
     18 CL        140.6990  144.7306  153.5291 Cl      1  UNL1       -0.0825
     19 C         140.1376  145.9806  155.7365 C.ar    1  UNL1        0.0142
     20 C         140.3875  146.2138  157.1970 C.ar    1  UNL1        0.0386
     21 C         141.4489  145.4302  157.9106 C.ar    1  UNL1        0.1485
     22 C         142.2603  144.4134  157.1638 C.ar    1  UNL1        0.0884
     23 CL        143.3217  143.6297  157.8776 Cl      1  UNL1       -0.0794
     24 C         140.6012  141.1321  168.6590 C.3     1  UNL1        0.0987
     25 C         139.7721  141.1401  169.9091 C.2     1  UNL1        0.0652
     26 O         139.5037  142.4317  170.6229 O.co2   1  UNL1       -0.5478
     27 O         139.2113  139.8563  170.4452 O.co2   1  UNL1       -0.5478
     28 C         142.0238  140.6588  168.7056 C.3     1  UNL1        0.0480
     29 C         142.7186  140.2460  167.4420 C.ar    1  UNL1       -0.0203
     30 C         143.0361  138.8003  167.1986 C.ar    1  UNL1       -0.0019
     31 C         143.7309  138.3875  165.9350 C.ar    1  UNL1        0.0293
     32 C         144.1084  139.4203  164.9148 C.ar    1  UNL1        0.1401
     33 F         144.8032  139.0074  163.6512 F       1  UNL1       -0.2042
     34 C         143.7909  140.8659  165.1582 C.ar    1  UNL1        0.0293
     35 C         143.0961  141.2788  166.4218 C.ar    1  UNL1       -0.0019
@<TRIPOS>UNITY_ATOM_ATTR
26 1
charge -1
@<TRIPOS>BOND
     1    15    16    1
     2    16    17   ar
     3    17    18    1
     4    17    19   ar
     5    19    20   ar
     6    20    21   ar
     7    21    14    1
     8    14     8    1
     9     8     9    1
    10     9    10    1
    11    10    11    1
    12    11     7    1
    13     7     1    1
    14     1     2    1
    15     2     3    1
    16     3     4    1
    17     4    24    1
    18    24    28    1
    19    28    29    1
    20    29    30   ar
    21    30    31   ar
    22    31    32   ar
    23    32    33    1
    24    32    34   ar
    25    34    35   ar
    26    24    25    1
    27    25    26   ar
    28    25    27   ar
    29     4     5    1
    30     5     6    1
    31    11    12    1
    32    12    13    1
    33    21    22   ar
    34    22    23    1
    35    22    16   ar
    36    13     8    1
    37     6     1    1
    38    35    29   ar
