@<TRIPOS>MOLECULE
*****
 32 35 0 0 0
SMALL
GASTEIGER

@<TRIPOS>ATOM
      1 C         141.1711  143.4420  159.1529 C.3     1  UNL1        0.2563
      2 N         140.4079  143.5497  160.4398 N.2     1  UNL1       -0.2434
      3 C         140.9063  143.3576  161.8415 C.2     1  UNL1        0.0795
      4 C         142.2908  143.0102  162.3025 C.ar    1  UNL1        0.0310
      5 C         142.3621  142.9124  163.7976 C.ar    1  UNL1        0.0027
      6 C         143.6616  142.5736  164.4659 C.ar    1  UNL1        0.0001
      7 C         144.8897  142.3327  163.6390 C.ar    1  UNL1        0.0013
      8 C         144.8184  142.4305  162.1439 C.ar    1  UNL1        0.0149
      9 C         143.5189  142.7693  161.4757 C.ar    1  UNL1        0.0554
     10 N         143.6658  142.8161  159.9836 N.am    1  UNL1       -0.2538
     11 C         145.0393  142.5251  159.4555 C.3     1  UNL1        0.1201
     12 C         142.6210  143.1155  158.9499 C.2     1  UNL1        0.2712
     13 O         143.0877  143.0842  157.5247 O.2     1  UNL1       -0.2705
     14 N         139.6275  145.2958  156.0016 N.am    1  UNL1       -0.2683
     15 C         140.4189  145.0437  157.2507 C.2     1  UNL1        0.3061
     16 O         141.2497  146.1415  157.8465 O.2     1  UNL1       -0.2524
     17 N         140.3796  143.6941  157.9039 N.am    1  UNL1       -0.2638
     18 H         139.0822  144.5754  155.6106 H       1  UNL1        0.1564
     19 H         139.8344  142.9736  157.5128 H       1  UNL1        0.1531
     20 C         138.2825  150.3147  155.9578 C.3     1  UNL1        0.0311
     21 C         138.9943  149.1550  155.3265 C.ar    1  UNL1       -0.0206
     22 C         139.7454  149.3451  154.0421 C.ar    1  UNL1       -0.0042
     23 C         140.4572  148.1855  153.4109 C.ar    1  UNL1        0.0010
     24 C         140.4179  146.8357  154.0641 C.ar    1  UNL1        0.0147
     25 C         139.6668  146.6456  155.3484 C.ar    1  UNL1        0.0513
     26 C         138.9550  147.8053  155.9797 C.ar    1  UNL1        0.0105
     27 C         139.8851  143.5364  162.9255 C.ar    1  UNL1        0.0174
     28 C         138.8300  142.4923  163.1417 C.ar    1  UNL1        0.0015
     29 C         137.8088  142.6712  164.2257 C.ar    1  UNL1        0.0000
     30 C         137.8427  143.8942  165.0936 C.ar    1  UNL1        0.0000
     31 C         138.8977  144.9382  164.8775 C.ar    1  UNL1        0.0000
     32 C         139.9189  144.7594  163.7935 C.ar    1  UNL1        0.0015
@<TRIPOS>BOND
     1    20    21    1
     2    21    22   ar
     3    22    23   ar
     4    23    24   ar
     5    24    25   ar
     6    25    14    1
     7    14    15   am
     8    15    16    2
     9    15    17   am
    10     1    17    1
    11     1     2    1
    12     2     3    2
    13     3    27    1
    14    27    28   ar
    15    28    29   ar
    16    29    30   ar
    17    30    31   ar
    18    31    32   ar
    19     3     4    1
    20     4     5   ar
    21     5     6   ar
    22     6     7   ar
    23     7     8   ar
    24     8     9   ar
    25     9    10    1
    26    10    11    1
    27    10    12   am
    28    12    13    2
    29    25    26   ar
    30    26    21   ar
    31    12     1    1
    32    32    27   ar
    33     9     4   ar
    34    14    18    1
    35    17    19    1
@<TRIPOS>MOLECULE
*****
 32 35 0 0 0
SMALL
GASTEIGER

@<TRIPOS>ATOM
      1 C         142.8176  143.0282  161.7089 C.3     1  UNL1        0.2563
      2 N         141.7802  141.9464  161.7681 N.2     1  UNL1       -0.2434
      3 C         141.2824  141.1927  162.9657 C.2     1  UNL1        0.0795
      4 C         141.6990  141.3346  164.3997 C.ar    1  UNL1        0.0310
      5 C         140.9492  140.3837  165.2849 C.ar    1  UNL1        0.0027
      6 C         141.2168  140.3635  166.7606 C.ar    1  UNL1        0.0001
      7 C         142.2341  141.2942  167.3513 C.ar    1  UNL1        0.0013
      8 C         142.9839  142.2451  166.4661 C.ar    1  UNL1        0.0149
      9 C         142.7164  142.2653  164.9903 C.ar    1  UNL1        0.0554
     10 N         143.5683  143.2839  164.2928 N.am    1  UNL1       -0.2538
     11 C         144.4982  144.0665  165.1719 C.3     1  UNL1        0.1201
     12 C         143.6135  143.6235  162.8324 C.2     1  UNL1        0.2712
     13 O         144.5824  144.7007  162.4443 O.2     1  UNL1       -0.2705
     14 N         144.0709  143.3091  157.9538 N.am    1  UNL1       -0.2683
     15 C         143.7925  142.7484  159.3170 C.2     1  UNL1        0.3061
     16 O         144.2105  141.3471  159.6513 O.2     1  UNL1       -0.2524
     17 N         143.0961  143.5889  160.3457 N.am    1  UNL1       -0.2638
     18 H         143.7966  144.2288  157.7344 H       1  UNL1        0.1564
     19 H         142.8217  144.5086  160.1263 H       1  UNL1        0.1531
     20 C         148.4457  141.7797  155.6038 C.3     1  UNL1        0.0311
     21 C         146.9548  141.7038  155.7501 C.ar    1  UNL1       -0.0206
     22 C         146.1604  140.7873  154.8675 C.ar    1  UNL1       -0.0042
     23 C         144.6694  140.7114  155.0137 C.ar    1  UNL1        0.0010
     24 C         143.9730  141.5520  156.0425 C.ar    1  UNL1        0.0147
     25 C         144.7674  142.4685  156.9250 C.ar    1  UNL1        0.0513
     26 C         146.2583  142.5444  156.7788 C.ar    1  UNL1        0.0105
     27 C         140.2286  140.1606  162.6932 C.ar    1  UNL1        0.0174
     28 C         138.8046  140.5809  162.4796 C.ar    1  UNL1        0.0015
     29 C         137.7508  139.5488  162.2071 C.ar    1  UNL1        0.0000
     30 C         138.1211  138.0963  162.1483 C.ar    1  UNL1        0.0000
     31 C         139.5449  137.6761  162.3619 C.ar    1  UNL1        0.0000
     32 C         140.5988  138.7081  162.6344 C.ar    1  UNL1        0.0015
@<TRIPOS>BOND
     1    20    21    1
     2    21    22   ar
     3    22    23   ar
     4    23    24   ar
     5    24    25   ar
     6    25    14    1
     7    14    15   am
     8    15    16    2
     9    15    17   am
    10     1    17    1
    11     1     2    1
    12     2     3    2
    13     3    27    1
    14    27    28   ar
    15    28    29   ar
    16    29    30   ar
    17    30    31   ar
    18    31    32   ar
    19     3     4    1
    20     4     5   ar
    21     5     6   ar
    22     6     7   ar
    23     7     8   ar
    24     8     9   ar
    25     9    10    1
    26    10    11    1
    27    10    12   am
    28    12    13    2
    29    25    26   ar
    30    26    21   ar
    31    12     1    1
    32    32    27   ar
    33     9     4   ar
    34    14    18    1
    35    17    19    1
@<TRIPOS>MOLECULE
*****
 32 35 0 0 0
SMALL
GASTEIGER

@<TRIPOS>ATOM
      1 C         141.2684  142.1159  162.4464 C.3     1  UNL1        0.2563
      2 N         140.4856  141.2277  163.3675 N.2     1  UNL1       -0.2434
      3 C         140.9963  140.2012  164.3347 C.2     1  UNL1        0.0795
      4 C         142.4159  139.8092  164.6196 C.ar    1  UNL1        0.0310
      5 C         142.4887  138.7347  165.6637 C.ar    1  UNL1        0.0027
      6 C         143.8210  138.1981  166.0959 C.ar    1  UNL1        0.0001
      7 C         145.0805  138.7359  165.4840 C.ar    1  UNL1        0.0013
      8 C         145.0077  139.8103  164.4399 C.ar    1  UNL1        0.0149
      9 C         143.6754  140.3470  164.0077 C.ar    1  UNL1        0.0554
     10 N         143.8263  141.4096  162.9598 N.am    1  UNL1       -0.2538
     11 C         145.2348  141.7269  162.5529 C.3     1  UNL1        0.1201
     12 C         142.7552  142.1969  162.2649 C.2     1  UNL1        0.2712
     13 O         143.2341  143.1973  161.2551 O.2     1  UNL1       -0.2705
     14 N         139.2452  143.5662  159.3556 N.am    1  UNL1       -0.2683
     15 C         140.0565  142.6360  160.2080 C.2     1  UNL1        0.3061
     16 O         140.4671  141.2956  159.6742 O.2     1  UNL1       -0.2524
     17 N         140.4571  143.0461  161.5940 N.am    1  UNL1       -0.2638
     18 H         138.9757  144.4459  159.7059 H       1  UNL1        0.1564
     19 H         140.1876  143.9258  161.9444 H       1  UNL1        0.1531
     20 C         136.0243  141.0211  156.1699 C.3     1  UNL1        0.0311
     21 C         137.2341  141.8835  156.3767 C.ar    1  UNL1       -0.0206
     22 C         138.0432  142.3357  155.1973 C.ar    1  UNL1       -0.0042
     23 C         139.2530  143.1981  155.4040 C.ar    1  UNL1        0.0010
     24 C         139.6536  143.6083  156.7902 C.ar    1  UNL1        0.0147
     25 C         138.8445  143.1560  157.9695 C.ar    1  UNL1        0.0513
     26 C         137.6348  142.2937  157.7627 C.ar    1  UNL1        0.0105
     27 C         139.9489  139.4699  165.1209 C.ar    1  UNL1        0.0174
     28 C         139.3976  140.0733  166.3787 C.ar    1  UNL1        0.0015
     29 C         138.3502  139.3420  167.1649 C.ar    1  UNL1        0.0000
     30 C         137.8541  138.0072  166.6933 C.ar    1  UNL1        0.0000
     31 C         138.4053  137.4039  165.4356 C.ar    1  UNL1        0.0000
     32 C         139.4527  138.1351  164.6493 C.ar    1  UNL1        0.0015
@<TRIPOS>BOND
     1    20    21    1
     2    21    22   ar
     3    22    23   ar
     4    23    24   ar
     5    24    25   ar
     6    25    14    1
     7    14    15   am
     8    15    16    2
     9    15    17   am
    10     1    17    1
    11     1     2    1
    12     2     3    2
    13     3    27    1
    14    27    28   ar
    15    28    29   ar
    16    29    30   ar
    17    30    31   ar
    18    31    32   ar
    19     3     4    1
    20     4     5   ar
    21     5     6   ar
    22     6     7   ar
    23     7     8   ar
    24     8     9   ar
    25     9    10    1
    26    10    11    1
    27    10    12   am
    28    12    13    2
    29    25    26   ar
    30    26    21   ar
    31    12     1    1
    32    32    27   ar
    33     9     4   ar
    34    14    18    1
    35    17    19    1
@<TRIPOS>MOLECULE
*****
 32 35 0 0 0
SMALL
GASTEIGER

@<TRIPOS>ATOM
      1 C         142.7166  142.3228  160.7317 C.3     1  UNL1        0.2563
      2 N         141.6786  142.8093  161.6992 N.2     1  UNL1       -0.2434
      3 C         140.9523  142.0351  162.7590 C.2     1  UNL1        0.0795
      4 C         141.0844  140.5835  163.1131 C.ar    1  UNL1        0.0310
      5 C         140.1697  140.2091  164.2414 C.ar    1  UNL1        0.0027
      6 C         140.1462  138.7987  164.7514 C.ar    1  UNL1        0.0001
      7 C         141.0374  137.7627  164.1330 C.ar    1  UNL1        0.0013
      8 C         141.9521  138.1370  163.0047 C.ar    1  UNL1        0.0149
      9 C         141.9756  139.5474  162.4947 C.ar    1  UNL1        0.0554
     10 N         142.9547  139.7072  161.3696 N.am    1  UNL1       -0.2538
     11 C         143.7031  138.4678  160.9773 C.3     1  UNL1        0.1201
     12 C         143.2846  140.9423  160.5850 C.2     1  UNL1        0.2712
     13 O         144.3190  140.7747  159.5119 O.2     1  UNL1       -0.2705
     14 N         142.9806  144.8271  157.6643 N.am    1  UNL1       -0.2683
     15 C         142.4389  143.7966  158.6102 C.2     1  UNL1        0.3061
     16 O         141.0778  143.2094  158.3805 O.2     1  UNL1       -0.2524
     17 N         143.2583  143.3533  159.7858 N.am    1  UNL1       -0.2638
     18 H         143.8739  145.2125  157.8151 H       1  UNL1        0.1564
     19 H         144.1516  143.7387  159.9366 H       1  UNL1        0.1531
     20 C         138.9675  147.5001  155.7277 C.3     1  UNL1        0.0311
     21 C         140.1546  146.6069  155.5204 C.ar    1  UNL1       -0.0206
     22 C         140.5223  146.1570  154.1374 C.ar    1  UNL1       -0.0042
     23 C         141.7093  145.2637  153.9301 C.ar    1  UNL1        0.0010
     24 C         142.5288  144.8204  155.1058 C.ar    1  UNL1        0.0147
     25 C         142.1611  145.2704  156.4886 C.ar    1  UNL1        0.0513
     26 C         140.9740  146.1636  156.6959 C.ar    1  UNL1        0.0105
     27 C         139.9629  142.8159  163.5723 C.ar    1  UNL1        0.0174
     28 C         140.4073  143.5205  164.8198 C.ar    1  UNL1        0.0015
     29 C         139.4178  144.3013  165.6331 C.ar    1  UNL1        0.0000
     30 C         137.9840  144.3774  165.1990 C.ar    1  UNL1        0.0000
     31 C         137.5397  143.6729  163.9516 C.ar    1  UNL1        0.0000
     32 C         138.5290  142.8921  163.1382 C.ar    1  UNL1        0.0015
@<TRIPOS>BOND
     1    20    21    1
     2    21    22   ar
     3    22    23   ar
     4    23    24   ar
     5    24    25   ar
     6    25    14    1
     7    14    15   am
     8    15    16    2
     9    15    17   am
    10     1    17    1
    11     1     2    1
    12     2     3    2
    13     3    27    1
    14    27    28   ar
    15    28    29   ar
    16    29    30   ar
    17    30    31   ar
    18    31    32   ar
    19     3     4    1
    20     4     5   ar
    21     5     6   ar
    22     6     7   ar
    23     7     8   ar
    24     8     9   ar
    25     9    10    1
    26    10    11    1
    27    10    12   am
    28    12    13    2
    29    25    26   ar
    30    26    21   ar
    31    12     1    1
    32    32    27   ar
    33     9     4   ar
    34    14    18    1
    35    17    19    1
@<TRIPOS>MOLECULE
*****
 32 35 0 0 0
SMALL
GASTEIGER

@<TRIPOS>ATOM
      1 C         139.9186  139.8317  162.7686 C.3     1  UNL1        0.2563
      2 N         140.7544  141.0428  163.0597 N.2     1  UNL1       -0.2434
      3 C         141.0502  141.6782  164.3858 C.2     1  UNL1        0.0795
      4 C         140.5834  141.2595  165.7485 C.ar    1  UNL1        0.0310
      5 C         141.1117  142.1739  166.8137 C.ar    1  UNL1        0.0027
      6 C         140.7620  141.9307  168.2519 C.ar    1  UNL1        0.0001
      7 C         139.8841  140.7731  168.6250 C.ar    1  UNL1        0.0013
      8 C         139.3558  139.8587  167.5597 C.ar    1  UNL1        0.0149
      9 C         139.7055  140.1019  166.1215 C.ar    1  UNL1        0.0554
     10 N         139.0775  139.0771  165.2240 N.am    1  UNL1       -0.2538
     11 C         138.2445  138.0348  165.9093 C.3     1  UNL1        0.1201
     12 C         139.1723  138.9568  163.7318 C.2     1  UNL1        0.2712
     13 O         138.4217  137.8102  163.1223 O.2     1  UNL1       -0.2705
     14 N         139.0919  140.0002  158.8908 N.am    1  UNL1       -0.2683
     15 C         139.1950  140.3878  160.3361 C.2     1  UNL1        0.3061
     16 O         138.6775  141.7191  160.7944 O.2     1  UNL1       -0.2524
     17 N         139.8155  139.4441  161.3232 N.am    1  UNL1       -0.2638
     18 H         139.4315  139.1265  158.5899 H       1  UNL1        0.1564
     19 H         140.1551  138.5704  161.0224 H       1  UNL1        0.1531
     20 C         135.1880  141.2424  155.6943 C.3     1  UNL1        0.0311
     21 C         136.5194  141.5650  156.3055 C.ar    1  UNL1       -0.0206
     22 C         137.2301  142.8314  155.9295 C.ar    1  UNL1       -0.0042
     23 C         138.5614  143.1540  156.5406 C.ar    1  UNL1        0.0010
     24 C         139.1820  142.2102  157.5277 C.ar    1  UNL1        0.0147
     25 C         138.4713  140.9440  157.9036 C.ar    1  UNL1        0.0513
     26 C         137.1400  140.6214  157.2925 C.ar    1  UNL1        0.0105
     27 C         141.9291  142.8931  164.3438 C.ar    1  UNL1        0.0174
     28 C         143.3663  142.7938  164.7618 C.ar    1  UNL1        0.0015
     29 C         144.2452  144.0087  164.7198 C.ar    1  UNL1        0.0000
     30 C         143.6869  145.3227  164.2598 C.ar    1  UNL1        0.0000
     31 C         142.2498  145.4220  163.8419 C.ar    1  UNL1        0.0000
     32 C         141.3708  144.2072  163.8838 C.ar    1  UNL1        0.0015
@<TRIPOS>BOND
     1    20    21    1
     2    21    22   ar
     3    22    23   ar
     4    23    24   ar
     5    24    25   ar
     6    25    14    1
     7    14    15   am
     8    15    16    2
     9    15    17   am
    10     1    17    1
    11     1     2    1
    12     2     3    2
    13     3    27    1
    14    27    28   ar
    15    28    29   ar
    16    29    30   ar
    17    30    31   ar
    18    31    32   ar
    19     3     4    1
    20     4     5   ar
    21     5     6   ar
    22     6     7   ar
    23     7     8   ar
    24     8     9   ar
    25     9    10    1
    26    10    11    1
    27    10    12   am
    28    12    13    2
    29    25    26   ar
    30    26    21   ar
    31    12     1    1
    32    32    27   ar
    33     9     4   ar
    34    14    18    1
    35    17    19    1
@<TRIPOS>MOLECULE
*****
 32 35 0 0 0
SMALL
GASTEIGER

@<TRIPOS>ATOM
      1 C         140.9827  144.0131  161.1824 C.3     1  UNL1        0.2563
      2 N         141.6636  142.6767  161.2052 N.2     1  UNL1       -0.2434
      3 C         141.3021  141.4565  161.9992 C.2     1  UNL1        0.0795
      4 C         140.1705  141.2711  162.9663 C.ar    1  UNL1        0.0310
      5 C         140.1668  139.8881  163.5469 C.ar    1  UNL1        0.0027
      6 C         139.1135  139.4943  164.5396 C.ar    1  UNL1        0.0001
      7 C         138.0639  140.4835  164.9516 C.ar    1  UNL1        0.0013
      8 C         138.0676  141.8666  164.3710 C.ar    1  UNL1        0.0149
      9 C         139.1210  142.2603  163.3783 C.ar    1  UNL1        0.0554
     10 N         138.9437  143.6792  162.9250 N.am    1  UNL1       -0.2538
     11 C         137.7846  144.4153  163.5288 C.3     1  UNL1        0.1201
     12 C         139.7722  144.4593  161.9477 C.2     1  UNL1        0.2712
     13 O         139.3321  145.8723  161.7035 O.2     1  UNL1       -0.2705
     14 N         141.8967  146.0439  157.8975 N.am    1  UNL1       -0.2683
     15 C         141.2864  145.0180  158.8059 C.2     1  UNL1        0.3061
     16 O         140.3694  143.9712  158.2460 O.2     1  UNL1       -0.2524
     17 N         141.5930  145.0390  160.2740 N.am    1  UNL1       -0.2638
     18 H         142.4984  146.7310  158.2649 H       1  UNL1        0.1564
     19 H         142.1948  145.7261  160.6415 H       1  UNL1        0.1531
     20 C         143.0093  144.4133  153.0909 C.3     1  UNL1        0.0311
     21 C         142.1463  145.2076  154.0260 C.ar    1  UNL1       -0.0206
     22 C         140.9768  145.9809  153.4929 C.ar    1  UNL1       -0.0042
     23 C         140.1138  146.7752  154.4280 C.ar    1  UNL1        0.0010
     24 C         140.4205  146.7962  155.8962 C.ar    1  UNL1        0.0147
     25 C         141.5900  146.0229  156.4293 C.ar    1  UNL1        0.0513
     26 C         142.4529  145.2286  155.4942 C.ar    1  UNL1        0.0105
     27 C         142.1896  140.2637  161.7996 C.ar    1  UNL1        0.0174
     28 C         141.9086  139.2976  160.6871 C.ar    1  UNL1        0.0015
     29 C         142.7961  138.1049  160.4875 C.ar    1  UNL1        0.0000
     30 C         143.9645  137.8783  161.4005 C.ar    1  UNL1        0.0000
     31 C         144.2455  138.8444  162.5129 C.ar    1  UNL1        0.0000
     32 C         143.3581  140.0371  162.7125 C.ar    1  UNL1        0.0015
@<TRIPOS>BOND
     1    20    21    1
     2    21    22   ar
     3    22    23   ar
     4    23    24   ar
     5    24    25   ar
     6    25    14    1
     7    14    15   am
     8    15    16    2
     9    15    17   am
    10     1    17    1
    11     1     2    1
    12     2     3    2
    13     3    27    1
    14    27    28   ar
    15    28    29   ar
    16    29    30   ar
    17    30    31   ar
    18    31    32   ar
    19     3     4    1
    20     4     5   ar
    21     5     6   ar
    22     6     7   ar
    23     7     8   ar
    24     8     9   ar
    25     9    10    1
    26    10    11    1
    27    10    12   am
    28    12    13    2
    29    25    26   ar
    30    26    21   ar
    31    12     1    1
    32    32    27   ar
    33     9     4   ar
    34    14    18    1
    35    17    19    1
@<TRIPOS>MOLECULE
*****
 32 35 0 0 0
SMALL
GASTEIGER

@<TRIPOS>ATOM
      1 C         140.3005  140.0334  161.1655 C.3     1  UNL1        0.2563
      2 N         141.0165  141.2173  161.7450 N.2     1  UNL1       -0.2434
      3 C         141.1823  141.5961  163.1869 C.2     1  UNL1        0.0795
      4 C         140.6731  140.8847  164.4054 C.ar    1  UNL1        0.0310
      5 C         141.0625  141.6039  165.6627 C.ar    1  UNL1        0.0027
      6 C         140.6512  141.0572  166.9976 C.ar    1  UNL1        0.0001
      7 C         139.8504  139.7913  167.0751 C.ar    1  UNL1        0.0013
      8 C         139.4609  139.0720  165.8177 C.ar    1  UNL1        0.0149
      9 C         139.8723  139.6187  164.4829 C.ar    1  UNL1        0.0554
     10 N         139.3829  138.7515  163.3610 N.am    1  UNL1       -0.2538
     11 C         138.5994  137.5394  163.7696 C.3     1  UNL1        0.1201
     12 C         139.5734  138.9360  161.8847 C.2     1  UNL1        0.2712
     13 O         138.9553  137.8842  161.0122 O.2     1  UNL1       -0.2705
     14 N         141.2928  138.9125  157.4901 N.am    1  UNL1       -0.2683
     15 C         141.2801  139.0121  158.9867 C.2     1  UNL1        0.3061
     16 O         142.2345  138.1900  159.8012 O.2     1  UNL1       -0.2524
     17 N         140.3132  139.9338  159.6689 N.am    1  UNL1       -0.2638
     18 H         140.6665  139.4521  156.9555 H       1  UNL1        0.1564
     19 H         139.6868  140.4734  159.1343 H       1  UNL1        0.1531
     20 C         142.7727  134.1043  156.1896 C.3     1  UNL1        0.0311
     21 C         142.9998  135.5866  156.1578 C.ar    1  UNL1       -0.0206
     22 C         144.1939  136.1473  155.4437 C.ar    1  UNL1       -0.0042
     23 C         144.4211  137.6296  155.4119 C.ar    1  UNL1        0.0010
     24 C         143.4540  138.5514  156.0940 C.ar    1  UNL1        0.0147
     25 C         142.2599  137.9907  156.8080 C.ar    1  UNL1        0.0513
     26 C         142.0328  136.5084  156.8398 C.ar    1  UNL1        0.0105
     27 C         141.9602  142.8525  163.4444 C.ar    1  UNL1        0.0174
     28 C         143.4399  142.7833  163.6808 C.ar    1  UNL1        0.0015
     29 C         144.2178  144.0397  163.9383 C.ar    1  UNL1        0.0000
     30 C         143.5161  145.3653  163.9594 C.ar    1  UNL1        0.0000
     31 C         142.0365  145.4345  163.7231 C.ar    1  UNL1        0.0000
     32 C         141.2585  144.1781  163.4656 C.ar    1  UNL1        0.0015
@<TRIPOS>BOND
     1    20    21    1
     2    21    22   ar
     3    22    23   ar
     4    23    24   ar
     5    24    25   ar
     6    25    14    1
     7    14    15   am
     8    15    16    2
     9    15    17   am
    10     1    17    1
    11     1     2    1
    12     2     3    2
    13     3    27    1
    14    27    28   ar
    15    28    29   ar
    16    29    30   ar
    17    30    31   ar
    18    31    32   ar
    19     3     4    1
    20     4     5   ar
    21     5     6   ar
    22     6     7   ar
    23     7     8   ar
    24     8     9   ar
    25     9    10    1
    26    10    11    1
    27    10    12   am
    28    12    13    2
    29    25    26   ar
    30    26    21   ar
    31    12     1    1
    32    32    27   ar
    33     9     4   ar
    34    14    18    1
    35    17    19    1
@<TRIPOS>MOLECULE
*****
 32 35 0 0 0
SMALL
GASTEIGER

@<TRIPOS>ATOM
      1 C         141.6555  140.7372  160.6822 C.3     1  UNL1        0.2563
      2 N         140.8830  140.1383  161.8200 N.2     1  UNL1       -0.2434
      3 C         141.0700  140.3528  163.2927 C.2     1  UNL1        0.0795
      4 C         142.0757  141.2190  163.9915 C.ar    1  UNL1        0.0310
      5 C         141.9192  141.1477  165.4816 C.ar    1  UNL1        0.0027
      6 C         142.8298  141.9421  166.3702 C.ar    1  UNL1        0.0001
      7 C         143.8969  142.8078  165.7687 C.ar    1  UNL1        0.0013
      8 C         144.0535  142.8791  164.2786 C.ar    1  UNL1        0.0149
      9 C         143.1429  142.0847  163.3900 C.ar    1  UNL1        0.0554
     10 N         143.4677  142.2980  161.9412 N.am    1  UNL1       -0.2538
     11 C         144.6050  143.2350  161.6605 C.3     1  UNL1        0.1201
     12 C         142.8059  141.6984  160.7361 C.2     1  UNL1        0.2712
     13 O         143.3687  142.1149  159.4096 O.2     1  UNL1       -0.2705
     14 N         141.4766  138.7661  157.2424 N.am    1  UNL1       -0.2683
     15 C         141.9120  139.1836  158.6157 C.2     1  UNL1        0.3061
     16 O         143.0394  138.4649  159.2960 O.2     1  UNL1       -0.2524
     17 N         141.2201  140.3197  159.3088 N.am    1  UNL1       -0.2638
     18 H         140.7368  139.2378  156.7959 H       1  UNL1        0.1564
     19 H         140.4802  140.7914  158.8624 H       1  UNL1        0.1531
     20 C         141.4084  133.9090  155.3973 C.3     1  UNL1        0.0311
     21 C         142.1344  135.2014  155.6267 C.ar    1  UNL1       -0.0206
     22 C         143.5525  135.3576  155.1630 C.ar    1  UNL1       -0.0042
     23 C         144.2785  136.6499  155.3925 C.ar    1  UNL1        0.0010
     24 C         143.5865  137.7861  156.0856 C.ar    1  UNL1        0.0147
     25 C         142.1686  137.6299  156.5492 C.ar    1  UNL1        0.0513
     26 C         141.4426  136.3375  156.3198 C.ar    1  UNL1        0.0105
     27 C         140.1266  139.6016  164.1848 C.ar    1  UNL1        0.0174
     28 C         139.0108  140.3271  164.8768 C.ar    1  UNL1        0.0015
     29 C         138.0673  139.5760  165.7688 C.ar    1  UNL1        0.0000
     30 C         138.2396  138.0994  165.9688 C.ar    1  UNL1        0.0000
     31 C         139.3553  137.3740  165.2769 C.ar    1  UNL1        0.0000
     32 C         140.2988  138.1250  164.3848 C.ar    1  UNL1        0.0015
@<TRIPOS>BOND
     1    20    21    1
     2    21    22   ar
     3    22    23   ar
     4    23    24   ar
     5    24    25   ar
     6    25    14    1
     7    14    15   am
     8    15    16    2
     9    15    17   am
    10     1    17    1
    11     1     2    1
    12     2     3    2
    13     3    27    1
    14    27    28   ar
    15    28    29   ar
    16    29    30   ar
    17    30    31   ar
    18    31    32   ar
    19     3     4    1
    20     4     5   ar
    21     5     6   ar
    22     6     7   ar
    23     7     8   ar
    24     8     9   ar
    25     9    10    1
    26    10    11    1
    27    10    12   am
    28    12    13    2
    29    25    26   ar
    30    26    21   ar
    31    12     1    1
    32    32    27   ar
    33     9     4   ar
    34    14    18    1
    35    17    19    1
@<TRIPOS>MOLECULE
*****
 32 35 0 0 0
SMALL
GASTEIGER

@<TRIPOS>ATOM
      1 C         139.5225  142.9547  162.0267 C.3     1  UNL1        0.2563
      2 N         139.2118  141.7543  162.8709 N.2     1  UNL1       -0.2434
      3 C         139.9596  141.2285  164.0601 C.2     1  UNL1        0.0795
      4 C         141.2028  141.7730  164.6989 C.ar    1  UNL1        0.0310
      5 C         141.6245  140.9416  165.8740 C.ar    1  UNL1        0.0027
      6 C         142.8485  141.3152  166.6563 C.ar    1  UNL1        0.0001
      7 C         143.6509  142.5201  166.2636 C.ar    1  UNL1        0.0013
      8 C         143.2292  143.3515  165.0885 C.ar    1  UNL1        0.0149
      9 C         142.0052  142.9780  164.3061 C.ar    1  UNL1        0.0554
     10 N         141.7625  143.9360  163.1776 N.am    1  UNL1       -0.2538
     11 C         142.7562  145.0519  163.0462 C.3     1  UNL1        0.1201
     12 C         140.6577  143.9256  162.1632 C.2     1  UNL1        0.2712
     13 O         140.6926  145.0325  161.1515 O.2     1  UNL1       -0.2705
     14 N         137.8375  142.8252  158.4359 N.am    1  UNL1       -0.2683
     15 C         138.7877  142.5608  159.5660 C.2     1  UNL1        0.3061
     16 O         139.9533  141.6382  159.3656 O.2     1  UNL1       -0.2524
     17 N         138.5723  143.2190  160.8966 N.am    1  UNL1       -0.2638
     18 H         137.0725  143.4307  158.5674 H       1  UNL1        0.1564
     19 H         137.8072  143.8245  161.0281 H       1  UNL1        0.1531
     20 C         136.2633  139.5336  154.7363 C.3     1  UNL1        0.0311
     21 C         137.2658  140.5211  155.2555 C.ar    1  UNL1       -0.0206
     22 C         138.4838  140.8504  154.4443 C.ar    1  UNL1       -0.0042
     23 C         139.4864  141.8379  154.9635 C.ar    1  UNL1        0.0010
     24 C         139.2709  142.4962  156.2941 C.ar    1  UNL1        0.0147
     25 C         138.0530  142.1669  157.1053 C.ar    1  UNL1        0.0513
     26 C         137.0504  141.1794  156.5860 C.ar    1  UNL1        0.0105
     27 C         139.3888  139.9949  164.6945 C.ar    1  UNL1        0.0174
     28 C         139.7370  138.6414  164.1495 C.ar    1  UNL1        0.0015
     29 C         139.1662  137.4079  164.7839 C.ar    1  UNL1        0.0000
     30 C         138.2472  137.5277  165.9633 C.ar    1  UNL1        0.0000
     31 C         137.8990  138.8810  166.5083 C.ar    1  UNL1        0.0000
     32 C         138.4697  140.1146  165.8740 C.ar    1  UNL1        0.0015
@<TRIPOS>BOND
     1    20    21    1
     2    21    22   ar
     3    22    23   ar
     4    23    24   ar
     5    24    25   ar
     6    25    14    1
     7    14    15   am
     8    15    16    2
     9    15    17   am
    10     1    17    1
    11     1     2    1
    12     2     3    2
    13     3    27    1
    14    27    28   ar
    15    28    29   ar
    16    29    30   ar
    17    30    31   ar
    18    31    32   ar
    19     3     4    1
    20     4     5   ar
    21     5     6   ar
    22     6     7   ar
    23     7     8   ar
    24     8     9   ar
    25     9    10    1
    26    10    11    1
    27    10    12   am
    28    12    13    2
    29    25    26   ar
    30    26    21   ar
    31    12     1    1
    32    32    27   ar
    33     9     4   ar
    34    14    18    1
    35    17    19    1
