@<TRIPOS>MOLECULE
*****
 35 38 0 0 0
SMALL
GASTEIGER

@<TRIPOS>ATOM
      1 N         142.9194  140.8563  166.7935 N.3     1  UNL1       -0.2691
      2 C         142.9698  139.3693  166.6035 C.3     1  UNL1        0.0724
      3 C         143.5521  138.7931  165.3469 C.3     1  UNL1        0.0188
      4 C         144.0840  139.7040  164.2804 C.3     1  UNL1        0.0188
      5 C         144.0336  141.1910  164.4705 C.3     1  UNL1        0.0188
      6 C         143.4513  141.7672  165.7270 C.3     1  UNL1        0.0724
      7 C         142.3371  141.4325  168.0501 C.3     1  UNL1        0.0987
      8 C         143.2091  141.6450  169.2520 C.2     1  UNL1        0.0652
      9 O         143.1665  140.6701  170.3912 O.co2   1  UNL1       -0.5478
     10 O         144.1236  142.8323  169.3147 O.co2   1  UNL1       -0.5478
     11 C         140.8829  141.7962  168.1047 C.3     1  UNL1        0.0487
     12 C         139.4730  141.5015  165.9425 C.ar    1  UNL1        0.0645
     13 C         138.4743  140.7223  165.1391 C.ar    1  UNL1        0.0100
     14 C         137.8868  139.4588  165.6944 C.ar    1  UNL1        0.0007
     15 C         138.2981  138.9744  167.0532 C.ar    1  UNL1       -0.0003
     16 C         139.2968  139.7536  167.8566 C.ar    1  UNL1       -0.0035
     17 C         139.8842  141.0171  167.3013 C.ar    1  UNL1       -0.0108
     18 N         140.6479  144.0285  164.8319 N.1     1  UNL1       -0.1908
     19 C         140.0604  142.7650  165.3872 C.1     1  UNL1        0.1001
     20 C         144.6663  139.1278  163.0238 C.3     1  UNL1        0.0721
     21 N         143.8271  139.0300  161.7845 N.3     1  UNL1       -0.2724
     22 C         142.5746  138.2045  161.7900 C.3     1  UNL1        0.0758
     23 C         141.7354  138.1067  160.5506 C.3     1  UNL1        0.0609
     24 C         142.1486  138.8343  159.3057 C.3     1  UNL1        0.1687
     25 C         143.4010  139.6598  159.3001 C.3     1  UNL1        0.0609
     26 C         144.2403  139.7576  160.5395 C.3     1  UNL1        0.0758
     27 O         141.3093  138.7365  158.0663 O.3     1  UNL1       -0.4790
     28 C         141.4332  137.5408  157.1691 C.ar    1  UNL1        0.1393
     29 C         140.3789  137.2639  156.1387 C.ar    1  UNL1        0.0378
     30 C         140.5027  136.0683  155.2415 C.ar    1  UNL1        0.0154
     31 C         141.6808  135.1494  155.3747 C.ar    1  UNL1        0.0684
     32 CL        141.8047  133.9537  154.4775 Cl      1  UNL1       -0.0814
     33 C         142.7352  135.4263  156.4052 C.ar    1  UNL1        0.0712
     34 CL        143.9133  134.5074  156.5384 Cl      1  UNL1       -0.0813
     35 C         142.6113  136.6220  157.3024 C.ar    1  UNL1        0.0491
@<TRIPOS>UNITY_ATOM_ATTR
9 1
charge -1
@<TRIPOS>BOND
     1    18    19    3
     2    19    12    1
     3    12    13   ar
     4    13    14   ar
     5    14    15   ar
     6    15    16   ar
     7    16    17   ar
     8    17    11    1
     9     7    11    1
    10     7     8    1
    11     8     9   ar
    12     8    10   ar
    13     7     1    1
    14     1     2    1
    15     2     3    1
    16     3     4    1
    17     4    20    1
    18    20    21    1
    19    21    22    1
    20    22    23    1
    21    23    24    1
    22    24    27    1
    23    27    28    1
    24    28    29   ar
    25    29    30   ar
    26    30    31   ar
    27    31    32    1
    28    31    33   ar
    29    33    34    1
    30    33    35   ar
    31    24    25    1
    32    25    26    1
    33     4     5    1
    34     5     6    1
    35    17    12   ar
    36     6     1    1
    37    26    21    1
    38    35    28   ar
@<TRIPOS>MOLECULE
*****
 35 38 0 0 0
SMALL
GASTEIGER

@<TRIPOS>ATOM
      1 N         140.0262  142.2300  166.5937 N.3     1  UNL1       -0.2691
      2 C         139.3905  140.9018  166.3079 C.3     1  UNL1        0.0724
      3 C         138.4478  140.7552  165.1504 C.3     1  UNL1        0.0188
      4 C         138.1408  141.9367  164.2788 C.3     1  UNL1        0.0188
      5 C         138.7764  143.2649  164.5646 C.3     1  UNL1        0.0188
      6 C         139.7191  143.4116  165.7221 C.3     1  UNL1        0.0724
      7 C         140.9689  142.3768  167.7512 C.3     1  UNL1        0.0987
      8 C         140.4351  142.6839  169.1190 C.2     1  UNL1        0.0652
      9 O         140.1380  144.1020  169.5071 O.co2   1  UNL1       -0.5478
     10 O         140.1985  141.5728  170.0986 O.co2   1  UNL1       -0.5478
     11 C         142.4454  142.2163  167.5410 C.3     1  UNL1        0.0487
     12 C         143.6208  141.4451  165.3561 C.ar    1  UNL1        0.0645
     13 C         144.1381  140.3443  164.4783 C.ar    1  UNL1        0.0100
     14 C         143.9973  138.9140  164.9074 C.ar    1  UNL1        0.0007
     15 C         143.3393  138.5844  166.2144 C.ar    1  UNL1       -0.0003
     16 C         142.8220  139.6851  167.0922 C.ar    1  UNL1       -0.0035
     17 C         142.9627  141.1155  166.6631 C.ar    1  UNL1       -0.0108
     18 N         143.9023  144.3059  164.4978 N.1     1  UNL1       -0.1908
     19 C         143.7616  142.8755  164.9269 C.1     1  UNL1        0.1001
     20 C         137.1980  141.7900  163.1213 C.3     1  UNL1        0.0721
     21 N         137.7292  141.4543  161.7593 N.3     1  UNL1       -0.2724
     22 C         138.3351  142.5281  160.9050 C.3     1  UNL1        0.0758
     23 C         138.8663  142.1924  159.5429 C.3     1  UNL1        0.0609
     24 C         138.7915  140.7830  159.0352 C.3     1  UNL1        0.1687
     25 C         138.1856  139.7092  159.8895 C.3     1  UNL1        0.0609
     26 C         137.6545  140.0448  161.2515 C.3     1  UNL1        0.0758
     27 O         139.3227  140.4474  157.6731 O.3     1  UNL1       -0.4790
     28 C         140.2676  139.2954  157.4995 C.ar    1  UNL1        0.1393
     29 C         141.5264  139.2287  158.3126 C.ar    1  UNL1        0.0378
     30 C         142.4712  138.0767  158.1390 C.ar    1  UNL1        0.0154
     31 C         142.1574  136.9914  157.1523 C.ar    1  UNL1        0.0684
     32 CL        143.1023  135.8394  156.9787 Cl      1  UNL1       -0.0814
     33 C         140.8986  137.0580  156.3392 C.ar    1  UNL1        0.0712
     34 CL        140.5847  135.9727  155.3526 Cl      1  UNL1       -0.0813
     35 C         139.9537  138.2100  156.5128 C.ar    1  UNL1        0.0491
@<TRIPOS>UNITY_ATOM_ATTR
9 1
charge -1
@<TRIPOS>BOND
     1    18    19    3
     2    19    12    1
     3    12    13   ar
     4    13    14   ar
     5    14    15   ar
     6    15    16   ar
     7    16    17   ar
     8    17    11    1
     9     7    11    1
    10     7     8    1
    11     8     9   ar
    12     8    10   ar
    13     7     1    1
    14     1     2    1
    15     2     3    1
    16     3     4    1
    17     4    20    1
    18    20    21    1
    19    21    22    1
    20    22    23    1
    21    23    24    1
    22    24    27    1
    23    27    28    1
    24    28    29   ar
    25    29    30   ar
    26    30    31   ar
    27    31    32    1
    28    31    33   ar
    29    33    34    1
    30    33    35   ar
    31    24    25    1
    32    25    26    1
    33     4     5    1
    34     5     6    1
    35    17    12   ar
    36     6     1    1
    37    26    21    1
    38    35    28   ar
@<TRIPOS>MOLECULE
*****
 35 38 0 0 0
SMALL
GASTEIGER

@<TRIPOS>ATOM
      1 N         140.0897  141.2373  165.7431 N.3     1  UNL1       -0.2691
      2 C         141.3843  140.9541  165.0405 C.3     1  UNL1        0.0724
      3 C         142.0311  142.0170  164.2027 C.3     1  UNL1        0.0188
      4 C         141.3832  143.3631  164.0676 C.3     1  UNL1        0.0188
      5 C         140.0885  143.6463  164.7702 C.3     1  UNL1        0.0188
      6 C         139.4418  142.5834  165.6079 C.3     1  UNL1        0.0724
      7 C         139.4429  140.1743  166.5809 C.3     1  UNL1        0.0987
      8 C         138.4065  139.2723  165.9791 C.2     1  UNL1        0.0652
      9 O         138.4029  139.0151  164.5014 O.co2   1  UNL1       -0.5478
     10 O         137.3735  138.6275  166.8552 O.co2   1  UNL1       -0.5478
     11 C         139.8326  140.0135  168.0204 C.3     1  UNL1        0.0487
     12 C         142.1919  140.8456  168.7212 C.ar    1  UNL1        0.0645
     13 C         143.0644  141.8718  169.3812 C.ar    1  UNL1        0.0100
     14 C         142.4500  143.0921  170.0005 C.ar    1  UNL1        0.0007
     15 C         140.9632  143.2862  169.9598 C.ar    1  UNL1       -0.0003
     16 C         140.0908  142.2600  169.2998 C.ar    1  UNL1       -0.0035
     17 C         140.7051  141.0397  168.6805 C.ar    1  UNL1       -0.0108
     18 N         143.4206  138.4051  167.4826 N.1     1  UNL1       -0.1908
     19 C         142.8063  139.6254  168.1019 C.1     1  UNL1        0.1001
     20 C         142.0300  144.4261  163.2297 C.3     1  UNL1        0.0721
     21 N         141.7105  144.5264  161.7676 N.3     1  UNL1       -0.2724
     22 C         142.5029  143.7339  160.7707 C.3     1  UNL1        0.0758
     23 C         142.1834  143.8343  159.3085 C.3     1  UNL1        0.0609
     24 C         141.0716  144.7271  158.8433 C.3     1  UNL1        0.1687
     25 C         140.2791  145.5197  159.8403 C.3     1  UNL1        0.0609
     26 C         140.5986  145.4193  161.3024 C.3     1  UNL1        0.0758
     27 O         140.7521  144.8275  157.3812 O.3     1  UNL1       -0.4790
     28 C         139.4971  144.2065  156.8434 C.ar    1  UNL1        0.1393
     29 C         138.7303  144.8908  155.7508 C.ar    1  UNL1        0.0378
     30 C         137.4752  144.2698  155.2130 C.ar    1  UNL1        0.0154
     31 C         136.9870  142.9645  155.7677 C.ar    1  UNL1        0.0684
     32 CL        135.7320  142.3435  155.2298 Cl      1  UNL1       -0.0814
     33 C         137.7538  142.2801  156.8603 C.ar    1  UNL1        0.0712
     34 CL        137.2656  140.9748  157.4149 Cl      1  UNL1       -0.0813
     35 C         139.0089  142.9011  157.3981 C.ar    1  UNL1        0.0491
@<TRIPOS>UNITY_ATOM_ATTR
9 1
charge -1
@<TRIPOS>BOND
     1    18    19    3
     2    19    12    1
     3    12    13   ar
     4    13    14   ar
     5    14    15   ar
     6    15    16   ar
     7    16    17   ar
     8    17    11    1
     9     7    11    1
    10     7     8    1
    11     8     9   ar
    12     8    10   ar
    13     7     1    1
    14     1     2    1
    15     2     3    1
    16     3     4    1
    17     4    20    1
    18    20    21    1
    19    21    22    1
    20    22    23    1
    21    23    24    1
    22    24    27    1
    23    27    28    1
    24    28    29   ar
    25    29    30   ar
    26    30    31   ar
    27    31    32    1
    28    31    33   ar
    29    33    34    1
    30    33    35   ar
    31    24    25    1
    32    25    26    1
    33     4     5    1
    34     5     6    1
    35    17    12   ar
    36     6     1    1
    37    26    21    1
    38    35    28   ar
@<TRIPOS>MOLECULE
*****
 35 38 0 0 0
SMALL
GASTEIGER

@<TRIPOS>ATOM
      1 N         141.3732  142.6133  166.6000 N.3     1  UNL1       -0.2691
      2 C         142.1769  142.8112  165.3490 C.3     1  UNL1        0.0724
      3 C         141.6114  143.6110  164.2130 C.3     1  UNL1        0.0188
      4 C         140.2423  144.2129  164.3280 C.3     1  UNL1        0.0188
      5 C         139.4386  144.0150  165.5790 C.3     1  UNL1        0.0188
      6 C         140.0041  143.2153  166.7150 C.3     1  UNL1        0.0724
      7 C         141.9387  141.8135  167.7361 C.3     1  UNL1        0.0987
      8 C         142.5818  142.5115  168.8977 C.2     1  UNL1        0.0652
      9 O         141.7490  142.9416  170.0687 O.co2   1  UNL1       -0.5478
     10 O         144.0577  142.7793  168.8882 O.co2   1  UNL1       -0.5478
     11 C         141.8611  140.3157  167.7105 C.3     1  UNL1        0.0487
     12 C         139.3651  139.5975  167.6451 C.ar    1  UNL1        0.0645
     13 C         138.2271  138.9173  166.9436 C.ar    1  UNL1        0.0100
     14 C         138.4469  138.2752  165.6059 C.ar    1  UNL1        0.0007
     15 C         139.8048  138.3132  164.9698 C.ar    1  UNL1       -0.0003
     16 C         140.9428  138.9934  165.6713 C.ar    1  UNL1       -0.0035
     17 C         140.7230  139.6355  167.0090 C.ar    1  UNL1       -0.0108
     18 N         138.9254  140.8817  170.3204 N.1     1  UNL1       -0.1908
     19 C         139.1453  140.2396  168.9828 C.1     1  UNL1        0.1001
     20 C         139.6768  145.0127  163.1920 C.3     1  UNL1        0.0721
     21 N         139.9181  144.5793  161.7764 N.3     1  UNL1       -0.2724
     22 C         140.8967  145.3264  160.9197 C.3     1  UNL1        0.0758
     23 C         141.1379  144.8929  159.5040 C.3     1  UNL1        0.0609
     24 C         140.4006  143.7122  158.9452 C.3     1  UNL1        0.1687
     25 C         139.4220  142.9651  159.8020 C.3     1  UNL1        0.0609
     26 C         139.1807  143.3985  161.2175 C.3     1  UNL1        0.0758
     27 O         140.6419  143.2788  157.5297 O.3     1  UNL1       -0.4790
     28 C         140.7127  144.3008  156.4340 C.ar    1  UNL1        0.1393
     29 C         141.8730  144.3021  155.4835 C.ar    1  UNL1        0.0378
     30 C         141.9439  145.3241  154.3878 C.ar    1  UNL1        0.0154
     31 C         140.8544  146.3449  154.2428 C.ar    1  UNL1        0.0684
     32 CL        140.9253  147.3669  153.1471 Cl      1  UNL1       -0.0814
     33 C         139.6940  146.3436  155.1933 C.ar    1  UNL1        0.0712
     34 CL        138.6046  147.3644  155.0483 Cl      1  UNL1       -0.0813
     35 C         139.6232  145.3216  156.2890 C.ar    1  UNL1        0.0491
@<TRIPOS>UNITY_ATOM_ATTR
9 1
charge -1
@<TRIPOS>BOND
     1    18    19    3
     2    19    12    1
     3    12    13   ar
     4    13    14   ar
     5    14    15   ar
     6    15    16   ar
     7    16    17   ar
     8    17    11    1
     9     7    11    1
    10     7     8    1
    11     8     9   ar
    12     8    10   ar
    13     7     1    1
    14     1     2    1
    15     2     3    1
    16     3     4    1
    17     4    20    1
    18    20    21    1
    19    21    22    1
    20    22    23    1
    21    23    24    1
    22    24    27    1
    23    27    28    1
    24    28    29   ar
    25    29    30   ar
    26    30    31   ar
    27    31    32    1
    28    31    33   ar
    29    33    34    1
    30    33    35   ar
    31    24    25    1
    32    25    26    1
    33     4     5    1
    34     5     6    1
    35    17    12   ar
    36     6     1    1
    37    26    21    1
    38    35    28   ar
@<TRIPOS>MOLECULE
*****
 35 38 0 0 0
SMALL
GASTEIGER

@<TRIPOS>ATOM
      1 N         140.3910  142.1349  159.1041 N.3     1  UNL1       -0.2691
      2 C         138.9217  142.2425  159.3857 C.3     1  UNL1        0.0724
      3 C         138.2361  141.1899  160.2054 C.3     1  UNL1        0.0188
      4 C         139.0199  140.0297  160.7435 C.3     1  UNL1        0.0188
      5 C         140.4893  139.9221  160.4619 C.3     1  UNL1        0.0188
      6 C         141.1748  140.9747  159.6422 C.3     1  UNL1        0.0724
      7 C         141.0767  143.1876  158.2844 C.3     1  UNL1        0.0987
      8 C         141.0350  143.1171  156.7866 C.2     1  UNL1        0.0652
      9 O         142.1511  142.4536  156.0356 O.co2   1  UNL1       -0.5478
     10 O         139.8771  143.7102  156.0398 O.co2   1  UNL1       -0.5478
     11 C         141.8040  144.3106  158.9624 C.3     1  UNL1        0.0487
     12 C         142.3364  144.1537  161.5005 C.ar    1  UNL1        0.0645
     13 C         142.0100  144.5093  162.9207 C.ar    1  UNL1        0.0100
     14 C         140.8248  145.3776  163.2230 C.ar    1  UNL1        0.0007
     15 C         139.9660  145.8901  162.1051 C.ar    1  UNL1       -0.0003
     16 C         140.2924  145.5345  160.6850 C.ar    1  UNL1       -0.0035
     17 C         141.4776  144.6662  160.3827 C.ar    1  UNL1       -0.0108
     18 N         144.7069  142.4172  160.8959 N.1     1  UNL1       -0.1908
     19 C         143.5217  143.2854  161.1982 C.1     1  UNL1        0.1001
     20 C         138.3343  138.9770  161.5632 C.3     1  UNL1        0.0721
     21 N         138.4368  139.0065  163.0594 N.3     1  UNL1       -0.2724
     22 C         138.8881  137.7854  163.8045 C.3     1  UNL1        0.0758
     23 C         138.9906  137.8150  165.3007 C.3     1  UNL1        0.0609
     24 C         138.6419  139.0657  166.0518 C.3     1  UNL1        0.1687
     25 C         138.1906  140.2868  165.3067 C.3     1  UNL1        0.0609
     26 C         138.0881  140.2573  163.8105 C.3     1  UNL1        0.0758
     27 O         138.7445  139.0953  167.5480 O.3     1  UNL1       -0.4790
     28 C         139.6108  140.1187  168.2203 C.ar    1  UNL1        0.1393
     29 C         139.2406  140.6401  169.5771 C.ar    1  UNL1        0.0378
     30 C         140.1069  141.6635  170.2494 C.ar    1  UNL1        0.0154
     31 C         141.3436  142.1655  169.5649 C.ar    1  UNL1        0.0684
     32 CL        142.2100  143.1889  170.2372 Cl      1  UNL1       -0.0814
     33 C         141.7140  141.6441  168.2080 C.ar    1  UNL1        0.0712
     34 CL        142.9506  142.1461  167.5235 Cl      1  UNL1       -0.0813
     35 C         140.8476  140.6207  167.5357 C.ar    1  UNL1        0.0491
@<TRIPOS>UNITY_ATOM_ATTR
9 1
charge -1
@<TRIPOS>BOND
     1    18    19    3
     2    19    12    1
     3    12    13   ar
     4    13    14   ar
     5    14    15   ar
     6    15    16   ar
     7    16    17   ar
     8    17    11    1
     9     7    11    1
    10     7     8    1
    11     8     9   ar
    12     8    10   ar
    13     7     1    1
    14     1     2    1
    15     2     3    1
    16     3     4    1
    17     4    20    1
    18    20    21    1
    19    21    22    1
    20    22    23    1
    21    23    24    1
    22    24    27    1
    23    27    28    1
    24    28    29   ar
    25    29    30   ar
    26    30    31   ar
    27    31    32    1
    28    31    33   ar
    29    33    34    1
    30    33    35   ar
    31    24    25    1
    32    25    26    1
    33     4     5    1
    34     5     6    1
    35    17    12   ar
    36     6     1    1
    37    26    21    1
    38    35    28   ar
@<TRIPOS>MOLECULE
*****
 35 38 0 0 0
SMALL
GASTEIGER

@<TRIPOS>ATOM
      1 N         139.1608  140.6654  165.9634 N.3     1  UNL1       -0.2691
      2 C         139.4932  142.1253  165.8740 C.3     1  UNL1        0.0724
      3 C         139.0309  142.9289  164.6947 C.3     1  UNL1        0.0188
      4 C         138.2362  142.2725  163.6050 C.3     1  UNL1        0.0188
      5 C         137.9038  140.8125  163.6944 C.3     1  UNL1        0.0188
      6 C         138.3661  140.0090  164.8737 C.3     1  UNL1        0.0724
      7 C         139.6231  139.8618  167.1427 C.3     1  UNL1        0.0987
      8 C         138.6468  139.4683  168.2113 C.2     1  UNL1        0.0652
      9 O         138.7904  140.0204  169.5985 O.co2   1  UNL1       -0.5478
     10 O         137.5267  138.5228  167.8926 O.co2   1  UNL1       -0.5478
     11 C         141.0617  139.4517  167.2533 C.3     1  UNL1        0.0487
     12 C         142.9803  140.5103  165.8574 C.ar    1  UNL1        0.0645
     13 C         143.8548  140.5064  164.6388 C.ar    1  UNL1        0.0100
     14 C         143.6855  139.4402  163.5974 C.ar    1  UNL1        0.0007
     15 C         142.6415  138.3778  163.7746 C.ar    1  UNL1       -0.0003
     16 C         141.7669  138.3817  164.9932 C.ar    1  UNL1       -0.0035
     17 C         141.9363  139.4479  166.0346 C.ar    1  UNL1       -0.0108
     18 N         143.3190  142.6427  167.9401 N.1     1  UNL1       -0.1908
     19 C         143.1496  141.5765  166.8987 C.1     1  UNL1        0.1001
     20 C         137.7739  143.0761  162.4257 C.3     1  UNL1        0.0721
     21 N         138.7780  143.7346  161.5269 N.3     1  UNL1       -0.2724
     22 C         139.3982  145.0410  161.9252 C.3     1  UNL1        0.0758
     23 C         140.4024  145.6996  161.0263 C.3     1  UNL1        0.0609
     24 C         140.7863  145.0518  159.7290 C.3     1  UNL1        0.1687
     25 C         140.1661  143.7454  159.3307 C.3     1  UNL1        0.0609
     26 C         139.1620  143.0868  160.2295 C.3     1  UNL1        0.0758
     27 O         141.7904  145.7103  158.8302 O.3     1  UNL1       -0.4790
     28 C         141.5496  145.7663  157.3507 C.ar    1  UNL1        0.1393
     29 C         142.4236  144.9810  156.4183 C.ar    1  UNL1        0.0378
     30 C         142.1828  145.0370  154.9388 C.ar    1  UNL1        0.0154
     31 C         141.0681  145.8784  154.3917 C.ar    1  UNL1        0.0684
     32 CL        140.8273  145.9344  152.9122 Cl      1  UNL1       -0.0814
     33 C         140.1940  146.6638  155.3241 C.ar    1  UNL1        0.0712
     34 CL        139.0793  147.5051  154.7770 Cl      1  UNL1       -0.0813
     35 C         140.4348  146.6078  156.8036 C.ar    1  UNL1        0.0491
@<TRIPOS>UNITY_ATOM_ATTR
9 1
charge -1
@<TRIPOS>BOND
     1    18    19    3
     2    19    12    1
     3    12    13   ar
     4    13    14   ar
     5    14    15   ar
     6    15    16   ar
     7    16    17   ar
     8    17    11    1
     9     7    11    1
    10     7     8    1
    11     8     9   ar
    12     8    10   ar
    13     7     1    1
    14     1     2    1
    15     2     3    1
    16     3     4    1
    17     4    20    1
    18    20    21    1
    19    21    22    1
    20    22    23    1
    21    23    24    1
    22    24    27    1
    23    27    28    1
    24    28    29   ar
    25    29    30   ar
    26    30    31   ar
    27    31    32    1
    28    31    33   ar
    29    33    34    1
    30    33    35   ar
    31    24    25    1
    32    25    26    1
    33     4     5    1
    34     5     6    1
    35    17    12   ar
    36     6     1    1
    37    26    21    1
    38    35    28   ar
@<TRIPOS>MOLECULE
*****
 35 38 0 0 0
SMALL
GASTEIGER

@<TRIPOS>ATOM
      1 N         141.4577  140.3616  166.1009 N.3     1  UNL1       -0.2691
      2 C         142.3524  139.1948  165.8041 C.3     1  UNL1        0.0724
      3 C         143.4735  139.3410  164.8184 C.3     1  UNL1        0.0188
      4 C         143.7001  140.6541  164.1296 C.3     1  UNL1        0.0188
      5 C         142.8054  141.8209  164.4263 C.3     1  UNL1        0.0188
      6 C         141.6843  141.6747  165.4120 C.3     1  UNL1        0.0724
      7 C         140.3365  140.2154  167.0866 C.3     1  UNL1        0.0987
      8 C         140.5908  140.4308  168.5491 C.2     1  UNL1        0.0652
      9 O         141.6303  141.4172  168.9923 O.co2   1  UNL1       -0.5478
     10 O         139.8055  139.6599  169.5684 O.co2   1  UNL1       -0.5478
     11 C         138.9611  139.8538  166.6097 C.3     1  UNL1        0.0487
     12 C         138.3127  140.3028  164.1343 C.ar    1  UNL1        0.0645
     13 C         138.1111  139.8056  162.7335 C.ar    1  UNL1        0.0100
     14 C         138.3563  138.3622  162.4075 C.ar    1  UNL1        0.0007
     15 C         138.8031  137.4159  163.4821 C.ar    1  UNL1       -0.0003
     16 C         139.0047  137.9132  164.8828 C.ar    1  UNL1       -0.0035
     17 C         138.7595  139.3566  165.2089 C.ar    1  UNL1       -0.0108
     18 N         137.8222  143.1897  164.7864 N.1     1  UNL1       -0.1908
     19 C         138.0675  141.7463  164.4603 C.1     1  UNL1        0.1001
     20 C         144.8213  140.8003  163.1439 C.3     1  UNL1        0.0721
     21 N         144.5197  140.9651  161.6838 N.3     1  UNL1       -0.2724
     22 C         144.0864  139.7823  160.8693 C.3     1  UNL1        0.0758
     23 C         143.7847  139.9472  159.4092 C.3     1  UNL1        0.0609
     24 C         143.9163  141.2947  158.7636 C.3     1  UNL1        0.1687
     25 C         144.3496  142.4775  159.5781 C.3     1  UNL1        0.0609
     26 C         144.6513  142.3127  161.0382 C.3     1  UNL1        0.0758
     27 O         143.6147  141.4595  157.3036 O.3     1  UNL1       -0.4790
     28 C         144.6576  142.0163  156.3804 C.ar    1  UNL1        0.1393
     29 C         144.2510  142.8795  155.2231 C.ar    1  UNL1        0.0378
     30 C         145.2940  143.4363  154.2999 C.ar    1  UNL1        0.0154
     31 C         146.7435  143.1299  154.5341 C.ar    1  UNL1        0.0684
     32 CL        147.7865  143.6867  153.6109 Cl      1  UNL1       -0.0814
     33 C         147.1502  142.2667  155.6915 C.ar    1  UNL1        0.0712
     34 CL        148.5997  141.9603  155.9257 Cl      1  UNL1       -0.0813
     35 C         146.1072  141.7099  156.6147 C.ar    1  UNL1        0.0491
@<TRIPOS>UNITY_ATOM_ATTR
9 1
charge -1
@<TRIPOS>BOND
     1    18    19    3
     2    19    12    1
     3    12    13   ar
     4    13    14   ar
     5    14    15   ar
     6    15    16   ar
     7    16    17   ar
     8    17    11    1
     9     7    11    1
    10     7     8    1
    11     8     9   ar
    12     8    10   ar
    13     7     1    1
    14     1     2    1
    15     2     3    1
    16     3     4    1
    17     4    20    1
    18    20    21    1
    19    21    22    1
    20    22    23    1
    21    23    24    1
    22    24    27    1
    23    27    28    1
    24    28    29   ar
    25    29    30   ar
    26    30    31   ar
    27    31    32    1
    28    31    33   ar
    29    33    34    1
    30    33    35   ar
    31    24    25    1
    32    25    26    1
    33     4     5    1
    34     5     6    1
    35    17    12   ar
    36     6     1    1
    37    26    21    1
    38    35    28   ar
@<TRIPOS>MOLECULE
*****
 35 38 0 0 0
SMALL
GASTEIGER

@<TRIPOS>ATOM
      1 N         142.5022  140.7092  159.7959 N.3     1  UNL1       -0.2691
      2 C         141.1296  141.2840  159.6073 C.3     1  UNL1        0.0724
      3 C         139.9466  140.6292  160.2566 C.3     1  UNL1        0.0188
      4 C         140.1362  139.3996  161.0945 C.3     1  UNL1        0.0188
      5 C         141.5087  138.8248  161.2831 C.3     1  UNL1        0.0188
      6 C         142.6917  139.4796  160.6338 C.3     1  UNL1        0.0724
      7 C         143.6852  141.3641  159.1465 C.3     1  UNL1        0.0987
      8 C         144.1752  140.8766  157.8152 C.2     1  UNL1        0.0652
      9 O         143.3961  139.8385  157.0635 O.co2   1  UNL1       -0.5478
     10 O         145.4445  141.4274  157.2357 O.co2   1  UNL1       -0.5478
     11 C         144.3783  142.5063  159.8285 C.3     1  UNL1        0.0487
     12 C         143.2976  143.5685  161.9389 C.ar    1  UNL1        0.0645
     13 C         143.2242  143.7074  163.4306 C.ar    1  UNL1        0.0100
     14 C         144.1581  142.9228  164.3037 C.ar    1  UNL1        0.0007
     15 C         145.1653  141.9993  163.6851 C.ar    1  UNL1       -0.0003
     16 C         145.2387  141.8605  162.1934 C.ar    1  UNL1       -0.0035
     17 C         144.3048  142.6451  161.3203 C.ar    1  UNL1       -0.0108
     18 N         141.4299  145.1377  160.1926 N.1     1  UNL1       -0.1908
     19 C         142.3638  144.3531  161.0658 C.1     1  UNL1        0.1001
     20 C         138.9531  138.7448  161.7439 C.3     1  UNL1        0.0721
     21 N         138.7726  138.8271  163.2307 N.3     1  UNL1       -0.2724
     22 C         138.9823  137.6088  164.0803 C.3     1  UNL1        0.0758
     23 C         138.8018  137.6912  165.5672 C.3     1  UNL1        0.0609
     24 C         138.4117  138.9919  166.2043 C.3     1  UNL1        0.1687
     25 C         138.2020  140.2102  165.3548 C.3     1  UNL1        0.0609
     26 C         138.3824  140.1278  163.8680 C.3     1  UNL1        0.0758
     27 O         138.2312  139.0742  167.6911 O.3     1  UNL1       -0.4790
     28 C         139.1961  139.8681  168.5210 C.ar    1  UNL1        0.1393
     29 C         138.7908  140.3577  169.8796 C.ar    1  UNL1        0.0378
     30 C         139.7558  141.1516  170.7094 C.ar    1  UNL1        0.0154
     31 C         141.1261  141.4559  170.1806 C.ar    1  UNL1        0.0684
     32 CL        142.0910  142.2498  171.0104 Cl      1  UNL1       -0.0814
     33 C         141.5314  140.9663  168.8219 C.ar    1  UNL1        0.0712
     34 CL        142.9017  141.2706  168.2931 Cl      1  UNL1       -0.0813
     35 C         140.5665  140.1724  167.9921 C.ar    1  UNL1        0.0491
@<TRIPOS>UNITY_ATOM_ATTR
9 1
charge -1
@<TRIPOS>BOND
     1    18    19    3
     2    19    12    1
     3    12    13   ar
     4    13    14   ar
     5    14    15   ar
     6    15    16   ar
     7    16    17   ar
     8    17    11    1
     9     7    11    1
    10     7     8    1
    11     8     9   ar
    12     8    10   ar
    13     7     1    1
    14     1     2    1
    15     2     3    1
    16     3     4    1
    17     4    20    1
    18    20    21    1
    19    21    22    1
    20    22    23    1
    21    23    24    1
    22    24    27    1
    23    27    28    1
    24    28    29   ar
    25    29    30   ar
    26    30    31   ar
    27    31    32    1
    28    31    33   ar
    29    33    34    1
    30    33    35   ar
    31    24    25    1
    32    25    26    1
    33     4     5    1
    34     5     6    1
    35    17    12   ar
    36     6     1    1
    37    26    21    1
    38    35    28   ar
@<TRIPOS>MOLECULE
*****
 35 38 0 0 0
SMALL
GASTEIGER

@<TRIPOS>ATOM
      1 N         141.3103  142.6976  166.4654 N.3     1  UNL1       -0.2691
      2 C         142.1189  142.9682  165.2314 C.3     1  UNL1        0.0724
      3 C         141.5283  143.7681  164.1083 C.3     1  UNL1        0.0188
      4 C         140.1292  144.2974  164.2193 C.3     1  UNL1        0.0188
      5 C         139.3206  144.0268  165.4533 C.3     1  UNL1        0.0188
      6 C         139.9111  143.2269  166.5764 C.3     1  UNL1        0.0724
      7 C         141.9008  141.8976  167.5886 C.3     1  UNL1        0.0987
      8 C         142.4981  142.5963  168.7739 C.2     1  UNL1        0.0652
      9 O         143.9883  142.6918  168.9158 O.co2   1  UNL1       -0.5478
     10 O         141.6051  143.1997  169.8173 O.co2   1  UNL1       -0.5478
     11 C         141.8939  140.3989  167.5264 C.3     1  UNL1        0.0487
     12 C         139.4202  139.6075  167.5949 C.ar    1  UNL1        0.0645
     13 C         138.2683  138.8886  166.9577 C.ar    1  UNL1        0.0100
     14 C         138.4379  138.2420  165.6149 C.ar    1  UNL1        0.0007
     15 C         139.7596  138.3143  164.9093 C.ar    1  UNL1       -0.0003
     16 C         140.9115  139.0333  165.5464 C.ar    1  UNL1       -0.0035
     17 C         140.7419  139.6799  166.8892 C.ar    1  UNL1       -0.0108
     18 N         139.0809  140.9008  170.2805 N.1     1  UNL1       -0.1908
     19 C         139.2506  140.2542  168.9377 C.1     1  UNL1        0.1001
     20 C         139.5387  145.0974  163.0961 C.3     1  UNL1        0.0721
     21 N         139.6811  144.6216  161.6807 N.3     1  UNL1       -0.2724
     22 C         139.1908  143.2575  161.2951 C.3     1  UNL1        0.0758
     23 C         139.3332  142.7817  159.8797 C.3     1  UNL1        0.0609
     24 C         139.9658  143.6701  158.8499 C.3     1  UNL1        0.1687
     25 C         140.4560  145.0343  159.2355 C.3     1  UNL1        0.0609
     26 C         140.3137  145.5101  160.6508 C.3     1  UNL1        0.0758
     27 O         140.1081  143.1943  157.4345 O.3     1  UNL1       -0.4790
     28 C         139.0404  142.3386  156.8199 C.ar    1  UNL1        0.1393
     29 C         137.6510  142.8783  156.6518 C.ar    1  UNL1        0.0378
     30 C         136.5833  142.0225  156.0373 C.ar    1  UNL1        0.0154
     31 C         136.9050  140.6271  155.5908 C.ar    1  UNL1        0.0684
     32 CL        135.8372  139.7714  154.9762 Cl      1  UNL1       -0.0814
     33 C         138.2944  140.0874  155.7589 C.ar    1  UNL1        0.0712
     34 CL        138.6161  138.6920  155.3125 Cl      1  UNL1       -0.0813
     35 C         139.3621  140.9431  156.3735 C.ar    1  UNL1        0.0491
@<TRIPOS>UNITY_ATOM_ATTR
9 1
charge -1
@<TRIPOS>BOND
     1    18    19    3
     2    19    12    1
     3    12    13   ar
     4    13    14   ar
     5    14    15   ar
     6    15    16   ar
     7    16    17   ar
     8    17    11    1
     9     7    11    1
    10     7     8    1
    11     8     9   ar
    12     8    10   ar
    13     7     1    1
    14     1     2    1
    15     2     3    1
    16     3     4    1
    17     4    20    1
    18    20    21    1
    19    21    22    1
    20    22    23    1
    21    23    24    1
    22    24    27    1
    23    27    28    1
    24    28    29   ar
    25    29    30   ar
    26    30    31   ar
    27    31    32    1
    28    31    33   ar
    29    33    34    1
    30    33    35   ar
    31    24    25    1
    32    25    26    1
    33     4     5    1
    34     5     6    1
    35    17    12   ar
    36     6     1    1
    37    26    21    1
    38    35    28   ar
