@<TRIPOS>MOLECULE
*****
 36 39 0 0 0
SMALL
GASTEIGER

@<TRIPOS>ATOM
      1 O         139.6160  144.0763  159.4373 O.2     1  UNL1       -0.2707
      2 C         140.3959  145.1065  160.1992 C.2     1  UNL1        0.2707
      3 N         141.8717  144.9312  160.4021 N.am    1  UNL1       -0.2808
      4 H         142.3835  145.6073  160.9022 H       1  UNL1        0.1550
      5 C         142.5676  143.7258  159.8431 C.ar    1  UNL1        0.0536
      6 C         142.8809  143.6528  158.3780 C.ar    1  UNL1        0.0353
      7 C         143.5769  142.4474  157.8189 C.ar    1  UNL1        0.1003
      8 N         143.9595  141.3148  158.7250 N.ar    1  UNL1       -0.2392
      9 C         143.6462  141.3877  160.1901 C.ar    1  UNL1        0.1357
     10 C         142.9503  142.5932  160.7492 C.ar    1  UNL1        0.0384
     11 C         144.0289  140.2552  161.0961 C.2     1  UNL1        0.2636
     12 O         144.3594  138.9110  160.5181 O.2     1  UNL1       -0.2685
     13 N         144.0811  140.4668  162.5802 N.am    1  UNL1       -0.2996
     14 H         143.8642  141.3490  162.9596 H       1  UNL1        0.1498
     15 C         144.4637  139.3343  163.4863 C.3     1  UNL1        0.0897
     16 C         143.7307  139.1270  164.7784 C.3     1  UNL1        0.0196
     17 C         143.0206  138.2186  165.7378 C.3     1  UNL1        0.0017
     18 C         143.1713  139.6764  166.0571 C.3     1  UNL1        0.0017
     19 C         139.6998  146.3119  160.7582 C.3     1  UNL1        0.2897
     20 O         139.0247  146.2353  162.0955 O.3     1  UNL1       -0.4656
     21 C         139.1898  145.0136  162.9501 C.ar    1  UNL1        0.1393
     22 C         140.4125  144.8558  163.8046 C.ar    1  UNL1        0.0370
     23 C         140.5776  143.6342  164.6592 C.ar    1  UNL1        0.0063
     24 C         139.5201  142.5704  164.6593 C.ar    1  UNL1        0.0392
     25 C         138.2975  142.7282  163.8048 C.ar    1  UNL1        0.0063
     26 C         138.1323  143.9498  162.9502 C.ar    1  UNL1        0.0370
     27 C         139.6852  141.3487  165.5139 C.2     1  UNL1        0.1961
     28 O         139.8486  141.4885  166.9984 O.2     1  UNL1       -0.2866
     29 C         139.6870  139.9874  164.8841 C.ar    1  UNL1        0.0460
     30 C         140.4332  139.7543  163.6039 C.ar    1  UNL1        0.0151
     31 C         140.4349  138.3929  162.9741 C.ar    1  UNL1        0.0578
     32 CL        141.1812  138.1597  161.6939 Cl      1  UNL1       -0.0822
     33 C         139.6905  137.2647  163.6243 C.ar    1  UNL1        0.0119
     34 C         138.9442  137.4978  164.9045 C.ar    1  UNL1        0.0077
     35 C         138.9425  138.8592  165.5344 C.ar    1  UNL1        0.0377
     36 BR        138.1962  139.0923  166.8145 Br      1  UNL1       -0.0489
@<TRIPOS>BOND
     1     1     2    2
     2     2    19    1
     3    19    20    1
     4    20    21    1
     5    21    22   ar
     6    22    23   ar
     7    23    24   ar
     8    24    27    1
     9    27    28    2
    10    27    29    1
    11    29    30   ar
    12    30    31   ar
    13    31    32    1
    14    31    33   ar
    15    33    34   ar
    16    34    35   ar
    17    35    36    1
    18    24    25   ar
    19    25    26   ar
    20     2     3   am
    21     3     5    1
    22     5     6   ar
    23     6     7   ar
    24     7     8   ar
    25     8     9   ar
    26     9    11    1
    27    11    12    2
    28    11    13   am
    29    13    15    1
    30    15    16    1
    31    16    17    1
    32    17    18    1
    33     9    10   ar
    34    26    21   ar
    35    10     5   ar
    36    35    29   ar
    37    18    16    1
    38     3     4    1
    39    13    14    1
@<TRIPOS>MOLECULE
*****
 36 39 0 0 0
SMALL
GASTEIGER

@<TRIPOS>ATOM
      1 O         140.9916  143.9888  159.9347 O.2     1  UNL1       -0.2707
      2 C         139.9419  144.6386  160.7867 C.2     1  UNL1        0.2707
      3 N         138.6879  143.8915  161.1320 N.am    1  UNL1       -0.2808
      4 H         137.9989  144.3180  161.6912 H       1  UNL1        0.1550
      5 C         138.4837  142.4945  160.6254 C.ar    1  UNL1        0.0536
      6 C         138.3159  142.2468  159.1554 C.ar    1  UNL1        0.0353
      7 C         138.1117  140.8498  158.6488 C.ar    1  UNL1        0.1003
      8 N         138.0752  139.7005  159.6120 N.ar    1  UNL1       -0.2392
      9 C         138.2430  139.9482  161.0818 C.ar    1  UNL1        0.1357
     10 C         138.4472  141.3452  161.5886 C.ar    1  UNL1        0.0384
     11 C         138.2065  138.7989  162.0450 C.2     1  UNL1        0.2636
     12 O         137.3292  137.6144  161.7665 O.2     1  UNL1       -0.2685
     13 N         139.0472  138.8340  163.2867 N.am    1  UNL1       -0.2996
     14 H         139.6230  139.6113  163.4696 H       1  UNL1        0.1498
     15 C         139.0108  137.6846  164.2499 C.3     1  UNL1        0.0897
     16 C         138.3642  137.8519  165.5930 C.3     1  UNL1        0.0196
     17 C         138.0013  138.7204  166.7609 C.3     1  UNL1        0.0017
     18 C         137.6073  137.2731  166.7515 C.3     1  UNL1        0.0017
     19 C         140.1462  146.0357  161.2933 C.3     1  UNL1        0.2897
     20 O         140.6888  146.2611  162.6734 O.3     1  UNL1       -0.4656
     21 C         141.3496  145.1355  163.4127 C.ar    1  UNL1        0.1393
     22 C         142.8457  145.0707  163.4986 C.ar    1  UNL1        0.0370
     23 C         143.5063  143.9451  164.2379 C.ar    1  UNL1        0.0063
     24 C         142.6708  142.8843  164.8912 C.ar    1  UNL1        0.0392
     25 C         141.1747  142.9491  164.8052 C.ar    1  UNL1        0.0063
     26 C         140.5141  144.0747  164.0660 C.ar    1  UNL1        0.0370
     27 C         143.3316  141.7587  165.6304 C.2     1  UNL1        0.1961
     28 O         144.4073  140.9531  164.9642 O.2     1  UNL1       -0.2866
     29 C         142.9165  141.4386  167.0359 C.ar    1  UNL1        0.0460
     30 C         143.1580  142.4317  168.1338 C.ar    1  UNL1        0.0151
     31 C         142.7430  142.1116  169.5393 C.ar    1  UNL1        0.0578
     32 CL        142.9845  143.1047  170.6372 Cl      1  UNL1       -0.0822
     33 C         142.0864  140.7985  169.8468 C.ar    1  UNL1        0.0119
     34 C         141.8449  139.8054  168.7488 C.ar    1  UNL1        0.0077
     35 C         142.2599  140.1254  167.3434 C.ar    1  UNL1        0.0377
     36 BR        142.0184  139.1324  166.2455 Br      1  UNL1       -0.0489
@<TRIPOS>BOND
     1     1     2    2
     2     2    19    1
     3    19    20    1
     4    20    21    1
     5    21    22   ar
     6    22    23   ar
     7    23    24   ar
     8    24    27    1
     9    27    28    2
    10    27    29    1
    11    29    30   ar
    12    30    31   ar
    13    31    32    1
    14    31    33   ar
    15    33    34   ar
    16    34    35   ar
    17    35    36    1
    18    24    25   ar
    19    25    26   ar
    20     2     3   am
    21     3     5    1
    22     5     6   ar
    23     6     7   ar
    24     7     8   ar
    25     8     9   ar
    26     9    11    1
    27    11    12    2
    28    11    13   am
    29    13    15    1
    30    15    16    1
    31    16    17    1
    32    17    18    1
    33     9    10   ar
    34    26    21   ar
    35    10     5   ar
    36    35    29   ar
    37    18    16    1
    38     3     4    1
    39    13    14    1
@<TRIPOS>MOLECULE
*****
 36 39 0 0 0
SMALL
GASTEIGER

@<TRIPOS>ATOM
      1 O         141.8869  144.7508  162.0977 O.2     1  UNL1       -0.2707
      2 C         140.7380  145.0524  161.1817 C.2     1  UNL1        0.2707
      3 N         140.6747  144.4180  159.8240 N.am    1  UNL1       -0.2808
      4 H         139.9207  144.6160  159.2228 H       1  UNL1        0.1550
      5 C         141.7604  143.4820  159.3823 C.ar    1  UNL1        0.0536
      6 C         142.7795  143.9354  158.3793 C.ar    1  UNL1        0.0353
      7 C         143.8652  142.9994  157.9376 C.ar    1  UNL1        0.1003
      8 N         143.9318  141.6099  158.4987 N.ar    1  UNL1       -0.2392
      9 C         142.9127  141.1564  159.5016 C.ar    1  UNL1        0.1357
     10 C         141.8270  142.0925  159.9434 C.ar    1  UNL1        0.0384
     11 C         142.9792  139.7670  160.0627 C.2     1  UNL1        0.2636
     12 O         143.4438  138.6312  159.2000 O.2     1  UNL1       -0.2685
     13 N         142.5813  139.5132  161.4865 N.am    1  UNL1       -0.2996
     14 H         142.2763  140.2586  162.0527 H       1  UNL1        0.1498
     15 C         142.6478  138.1237  162.0476 C.3     1  UNL1        0.0897
     16 C         141.4981  137.5802  162.8430 C.3     1  UNL1        0.0196
     17 C         140.0214  137.4657  163.0799 C.3     1  UNL1        0.0017
     18 C         140.9834  136.7531  163.9836 C.3     1  UNL1        0.0017
     19 C         139.6523  145.9885  161.6235 C.3     1  UNL1        0.2897
     20 O         138.4803  145.4648  162.3994 O.3     1  UNL1       -0.4656
     21 C         138.6236  144.2221  163.2271 C.ar    1  UNL1        0.1393
     22 C         138.0739  142.9196  162.7259 C.ar    1  UNL1        0.0370
     23 C         138.2173  141.6769  163.5537 C.ar    1  UNL1        0.0063
     24 C         138.9104  141.7367  164.8826 C.ar    1  UNL1        0.0392
     25 C         139.4601  143.0392  165.3838 C.ar    1  UNL1        0.0063
     26 C         139.3167  144.2819  164.5561 C.ar    1  UNL1        0.0370
     27 C         139.0537  140.4940  165.7103 C.2     1  UNL1        0.1961
     28 O         137.8695  139.6008  165.9335 O.2     1  UNL1       -0.2866
     29 C         140.3812  140.1445  166.3149 C.ar    1  UNL1        0.0460
     30 C         141.5656  139.8926  165.4295 C.ar    1  UNL1        0.0151
     31 C         142.8931  139.5431  166.0341 C.ar    1  UNL1        0.0578
     32 CL        144.0775  139.2912  165.1487 Cl      1  UNL1       -0.0822
     33 C         143.0363  139.4455  167.5240 C.ar    1  UNL1        0.0119
     34 C         141.8520  139.6974  168.4094 C.ar    1  UNL1        0.0077
     35 C         140.5245  140.0469  167.8049 C.ar    1  UNL1        0.0377
     36 BR        139.3402  140.2988  168.6903 Br      1  UNL1       -0.0489
@<TRIPOS>BOND
     1     1     2    2
     2     2    19    1
     3    19    20    1
     4    20    21    1
     5    21    22   ar
     6    22    23   ar
     7    23    24   ar
     8    24    27    1
     9    27    28    2
    10    27    29    1
    11    29    30   ar
    12    30    31   ar
    13    31    32    1
    14    31    33   ar
    15    33    34   ar
    16    34    35   ar
    17    35    36    1
    18    24    25   ar
    19    25    26   ar
    20     2     3   am
    21     3     5    1
    22     5     6   ar
    23     6     7   ar
    24     7     8   ar
    25     8     9   ar
    26     9    11    1
    27    11    12    2
    28    11    13   am
    29    13    15    1
    30    15    16    1
    31    16    17    1
    32    17    18    1
    33     9    10   ar
    34    26    21   ar
    35    10     5   ar
    36    35    29   ar
    37    18    16    1
    38     3     4    1
    39    13    14    1
@<TRIPOS>MOLECULE
*****
 36 39 0 0 0
SMALL
GASTEIGER

@<TRIPOS>ATOM
      1 O         139.4687  144.0714  159.8005 O.2     1  UNL1       -0.2707
      2 C         140.3595  144.9906  160.5825 C.2     1  UNL1        0.2707
      3 N         141.8414  144.7594  160.6049 N.am    1  UNL1       -0.2808
      4 H         142.4261  145.3627  161.1181 H       1  UNL1        0.1550
      5 C         142.4325  143.6090  159.8452 C.ar    1  UNL1        0.0536
      6 C         142.9791  143.8234  158.4649 C.ar    1  UNL1        0.0353
      7 C         143.5702  142.6730  157.7052 C.ar    1  UNL1        0.1003
      8 N         143.6147  141.3081  158.3258 N.ar    1  UNL1       -0.2392
      9 C         143.0681  141.0936  159.7061 C.ar    1  UNL1        0.1357
     10 C         142.4769  142.2441  160.4658 C.ar    1  UNL1        0.0384
     11 C         143.1125  139.7288  160.3267 C.2     1  UNL1        0.2636
     12 O         144.3321  138.8705  160.1646 O.2     1  UNL1       -0.2685
     13 N         141.9375  139.2221  161.1094 N.am    1  UNL1       -0.2996
     14 H         141.1371  139.7854  161.2158 H       1  UNL1        0.1498
     15 C         141.9820  137.8573  161.7300 C.3     1  UNL1        0.0897
     16 C         141.1293  137.5485  162.9247 C.3     1  UNL1        0.0196
     17 C         139.7957  137.5757  163.6108 C.3     1  UNL1        0.0017
     18 C         140.9859  136.9864  164.3081 C.3     1  UNL1        0.0017
     19 C         139.7684  146.1411  161.3422 C.3     1  UNL1        0.2897
     20 O         138.7600  145.8870  162.4231 O.3     1  UNL1       -0.4656
     21 C         138.9180  144.7054  163.3336 C.ar    1  UNL1        0.1393
     22 C         137.9106  143.5945  163.3022 C.ar    1  UNL1        0.0370
     23 C         138.0686  142.4129  164.2126 C.ar    1  UNL1        0.0063
     24 C         139.2340  142.3423  165.1544 C.ar    1  UNL1        0.0392
     25 C         140.2413  143.4532  165.1858 C.ar    1  UNL1        0.0063
     26 C         140.0833  144.6348  164.2754 C.ar    1  UNL1        0.0370
     27 C         139.3920  141.1607  166.0649 C.2     1  UNL1        0.1961
     28 O         138.5103  139.9592  165.8942 O.2     1  UNL1       -0.2866
     29 C         140.4316  141.1805  167.1459 C.ar    1  UNL1        0.0460
     30 C         140.0710  141.6482  168.5248 C.ar    1  UNL1        0.0151
     31 C         141.1107  141.6680  169.6059 C.ar    1  UNL1        0.0578
     32 CL        140.7501  142.1356  170.9847 Cl      1  UNL1       -0.0822
     33 C         142.5110  141.2202  169.3081 C.ar    1  UNL1        0.0119
     34 C         142.8716  140.7526  167.9292 C.ar    1  UNL1        0.0077
     35 C         141.8319  140.7327  166.8481 C.ar    1  UNL1        0.0377
     36 BR        142.1926  140.2651  165.4693 Br      1  UNL1       -0.0489
@<TRIPOS>BOND
     1     1     2    2
     2     2    19    1
     3    19    20    1
     4    20    21    1
     5    21    22   ar
     6    22    23   ar
     7    23    24   ar
     8    24    27    1
     9    27    28    2
    10    27    29    1
    11    29    30   ar
    12    30    31   ar
    13    31    32    1
    14    31    33   ar
    15    33    34   ar
    16    34    35   ar
    17    35    36    1
    18    24    25   ar
    19    25    26   ar
    20     2     3   am
    21     3     5    1
    22     5     6   ar
    23     6     7   ar
    24     7     8   ar
    25     8     9   ar
    26     9    11    1
    27    11    12    2
    28    11    13   am
    29    13    15    1
    30    15    16    1
    31    16    17    1
    32    17    18    1
    33     9    10   ar
    34    26    21   ar
    35    10     5   ar
    36    35    29   ar
    37    18    16    1
    38     3     4    1
    39    13    14    1
@<TRIPOS>MOLECULE
*****
 36 39 0 0 0
SMALL
GASTEIGER

@<TRIPOS>ATOM
      1 O         141.3959  143.8459  160.0633 O.2     1  UNL1       -0.2707
      2 C         140.0662  144.4032  160.4770 C.2     1  UNL1        0.2707
      3 N         138.8564  143.5168  160.5022 N.am    1  UNL1       -0.2808
      4 H         137.9837  143.8826  160.7738 H       1  UNL1        0.1550
      5 C         138.9764  142.0730  160.1136 C.ar    1  UNL1        0.0536
      6 C         138.3298  141.5792  158.8534 C.ar    1  UNL1        0.0353
      7 C         138.4497  140.1355  158.4648 C.ar    1  UNL1        0.1003
      8 N         139.2163  139.1854  159.3364 N.ar    1  UNL1       -0.2392
      9 C         139.8629  139.6791  160.5966 C.ar    1  UNL1        0.1357
     10 C         139.7430  141.1229  160.9852 C.ar    1  UNL1        0.0384
     11 C         140.6295  138.7290  161.4682 C.2     1  UNL1        0.2636
     12 O         139.9778  137.4709  161.9607 O.2     1  UNL1       -0.2685
     13 N         142.0477  139.0370  161.8473 N.am    1  UNL1       -0.2996
     14 H         142.4754  139.8627  161.5241 H       1  UNL1        0.1498
     15 C         142.8143  138.0869  162.7189 C.3     1  UNL1        0.0897
     16 C         143.1189  138.4534  164.1412 C.3     1  UNL1        0.0196
     17 C         142.7699  138.4023  165.5991 C.3     1  UNL1        0.0017
     18 C         143.9956  139.1392  165.1467 C.3     1  UNL1        0.0017
     19 C         139.9463  145.8471  160.8656 C.3     1  UNL1        0.2897
     20 O         139.9915  146.2407  162.3123 O.3     1  UNL1       -0.4656
     21 C         140.4399  145.2500  163.3455 C.ar    1  UNL1        0.1393
     22 C         141.8773  144.8248  163.4028 C.ar    1  UNL1        0.0370
     23 C         142.3257  143.8341  164.4359 C.ar    1  UNL1        0.0063
     24 C         141.3368  143.2686  165.4118 C.ar    1  UNL1        0.0392
     25 C         139.8995  143.6938  165.3545 C.ar    1  UNL1        0.0063
     26 C         139.4511  144.6845  164.3214 C.ar    1  UNL1        0.0370
     27 C         141.7853  142.2779  166.4450 C.2     1  UNL1        0.1961
     28 O         143.2474  142.1004  166.7289 O.2     1  UNL1       -0.2866
     29 C         140.7717  141.4647  167.1941 C.ar    1  UNL1        0.0460
     30 C         140.0053  140.3858  166.4879 C.ar    1  UNL1        0.0151
     31 C         138.9917  139.5727  167.2371 C.ar    1  UNL1        0.0578
     32 CL        138.2253  138.4938  166.5309 Cl      1  UNL1       -0.0822
     33 C         138.7444  139.8384  168.6925 C.ar    1  UNL1        0.0119
     34 C         139.5107  140.9173  169.3987 C.ar    1  UNL1        0.0077
     35 C         140.5243  141.7304  168.6496 C.ar    1  UNL1        0.0377
     36 BR        141.2907  142.8093  169.3558 Br      1  UNL1       -0.0489
@<TRIPOS>BOND
     1     1     2    2
     2     2    19    1
     3    19    20    1
     4    20    21    1
     5    21    22   ar
     6    22    23   ar
     7    23    24   ar
     8    24    27    1
     9    27    28    2
    10    27    29    1
    11    29    30   ar
    12    30    31   ar
    13    31    32    1
    14    31    33   ar
    15    33    34   ar
    16    34    35   ar
    17    35    36    1
    18    24    25   ar
    19    25    26   ar
    20     2     3   am
    21     3     5    1
    22     5     6   ar
    23     6     7   ar
    24     7     8   ar
    25     8     9   ar
    26     9    11    1
    27    11    12    2
    28    11    13   am
    29    13    15    1
    30    15    16    1
    31    16    17    1
    32    17    18    1
    33     9    10   ar
    34    26    21   ar
    35    10     5   ar
    36    35    29   ar
    37    18    16    1
    38     3     4    1
    39    13    14    1
@<TRIPOS>MOLECULE
*****
 36 39 0 0 0
SMALL
GASTEIGER

@<TRIPOS>ATOM
      1 O         138.4537  143.1326  160.3424 O.2     1  UNL1       -0.2707
      2 C         139.8037  143.7724  160.4769 C.2     1  UNL1        0.2707
      3 N         141.0429  142.9299  160.4105 N.am    1  UNL1       -0.2808
      4 H         141.9290  143.3499  160.4987 H       1  UNL1        0.1550
      5 C         140.9321  141.4476  160.2097 C.ar    1  UNL1        0.0536
      6 C         140.9790  140.8727  158.8250 C.ar    1  UNL1        0.0353
      7 C         140.8682  139.3904  158.6242 C.ar    1  UNL1        0.1003
      8 N         140.7105  138.4828  159.8081 N.ar    1  UNL1       -0.2392
      9 C         140.6637  139.0577  161.1927 C.ar    1  UNL1        0.1357
     10 C         140.7744  140.5401  161.3936 C.ar    1  UNL1        0.0384
     11 C         140.5060  138.1502  162.3766 C.2     1  UNL1        0.2636
     12 O         141.3762  136.9358  162.5119 O.2     1  UNL1       -0.2685
     13 N         139.4782  138.4569  163.4252 N.am    1  UNL1       -0.2996
     14 H         138.9071  139.2539  163.3364 H       1  UNL1        0.1498
     15 C         139.3206  137.5494  164.6091 C.3     1  UNL1        0.0897
     16 C         138.4231  137.9459  165.7437 C.3     1  UNL1        0.0196
     17 C         137.7909  139.0120  166.5885 C.3     1  UNL1        0.0017
     18 C         137.5010  137.5663  166.8642 C.3     1  UNL1        0.0017
     19 C         139.9144  145.2549  160.6776 C.3     1  UNL1        0.2897
     20 O         140.0209  145.8181  162.0638 O.3     1  UNL1       -0.4656
     21 C         140.6205  144.9937  163.1643 C.ar    1  UNL1        0.1393
     22 C         142.1108  144.9134  163.3145 C.ar    1  UNL1        0.0370
     23 C         142.7103  144.0891  164.4149 C.ar    1  UNL1        0.0063
     24 C         141.8196  143.3451  165.3652 C.ar    1  UNL1        0.0392
     25 C         140.3293  143.4254  165.2150 C.ar    1  UNL1        0.0063
     26 C         139.7298  144.2497  164.1145 C.ar    1  UNL1        0.0370
     27 C         142.4192  142.5208  166.4657 C.2     1  UNL1        0.1961
     28 O         143.8974  142.2678  166.4930 O.2     1  UNL1       -0.2866
     29 C         141.5405  141.9495  167.5388 C.ar    1  UNL1        0.0460
     30 C         140.9950  142.8408  168.6149 C.ar    1  UNL1        0.0151
     31 C         140.1163  142.2695  169.6881 C.ar    1  UNL1        0.0578
     32 CL        139.5708  143.1607  170.7642 Cl      1  UNL1       -0.0822
     33 C         139.7832  140.8070  169.6851 C.ar    1  UNL1        0.0119
     34 C         140.3287  139.9157  168.6089 C.ar    1  UNL1        0.0077
     35 C         141.2074  140.4869  167.5358 C.ar    1  UNL1        0.0377
     36 BR        141.7529  139.5957  166.4597 Br      1  UNL1       -0.0489
@<TRIPOS>BOND
     1     1     2    2
     2     2    19    1
     3    19    20    1
     4    20    21    1
     5    21    22   ar
     6    22    23   ar
     7    23    24   ar
     8    24    27    1
     9    27    28    2
    10    27    29    1
    11    29    30   ar
    12    30    31   ar
    13    31    32    1
    14    31    33   ar
    15    33    34   ar
    16    34    35   ar
    17    35    36    1
    18    24    25   ar
    19    25    26   ar
    20     2     3   am
    21     3     5    1
    22     5     6   ar
    23     6     7   ar
    24     7     8   ar
    25     8     9   ar
    26     9    11    1
    27    11    12    2
    28    11    13   am
    29    13    15    1
    30    15    16    1
    31    16    17    1
    32    17    18    1
    33     9    10   ar
    34    26    21   ar
    35    10     5   ar
    36    35    29   ar
    37    18    16    1
    38     3     4    1
    39    13    14    1
@<TRIPOS>MOLECULE
*****
 36 39 0 0 0
SMALL
GASTEIGER

@<TRIPOS>ATOM
      1 O         138.4991  143.1198  160.1570 O.2     1  UNL1       -0.2707
      2 C         139.8882  143.5856  159.8358 C.2     1  UNL1        0.2707
      3 N         140.9656  142.5845  159.5409 N.am    1  UNL1       -0.2808
      4 H         141.8774  142.8902  159.3301 H       1  UNL1        0.1550
      5 C         140.6538  141.1175  159.5672 C.ar    1  UNL1        0.0536
      6 C         140.8557  140.2856  158.3354 C.ar    1  UNL1        0.0353
      7 C         140.5439  138.8186  158.3618 C.ar    1  UNL1        0.1003
      8 N         140.0302  138.1835  159.6198 N.ar    1  UNL1       -0.2392
      9 C         139.8283  139.0154  160.8516 C.ar    1  UNL1        0.1357
     10 C         140.1401  140.4824  160.8253 C.ar    1  UNL1        0.0384
     11 C         139.3145  138.3802  162.1096 C.2     1  UNL1        0.2636
     12 O         137.9057  137.8687  162.1704 O.2     1  UNL1       -0.2685
     13 N         140.2096  138.2566  163.3069 N.am    1  UNL1       -0.2996
     14 H         141.1342  138.5923  163.2671 H       1  UNL1        0.1498
     15 C         139.6959  137.6215  164.5650 C.3     1  UNL1        0.0897
     16 C         138.8086  138.4005  165.4902 C.3     1  UNL1        0.0196
     17 C         138.1537  139.6922  165.8807 C.3     1  UNL1        0.0017
     18 C         137.9267  138.4579  166.7022 C.3     1  UNL1        0.0017
     19 C         140.2000  145.0527  159.8094 C.3     1  UNL1        0.2897
     20 O         140.5070  145.7772  161.0864 O.3     1  UNL1       -0.4656
     21 C         141.2922  145.0937  162.1665 C.ar    1  UNL1        0.1393
     22 C         142.7458  144.7881  161.9579 C.ar    1  UNL1        0.0370
     23 C         143.5310  144.1047  163.0379 C.ar    1  UNL1        0.0063
     24 C         142.8625  143.7269  164.3265 C.ar    1  UNL1        0.0392
     25 C         141.4089  144.0325  164.5350 C.ar    1  UNL1        0.0063
     26 C         140.6237  144.7159  163.4550 C.ar    1  UNL1        0.0370
     27 C         143.6477  143.0435  165.4065 C.2     1  UNL1        0.1961
     28 O         144.7997  143.7499  166.0576 O.2     1  UNL1       -0.2866
     29 C         143.2810  141.6537  165.8353 C.ar    1  UNL1        0.0460
     30 C         142.3125  141.4474  166.9620 C.ar    1  UNL1        0.0151
     31 C         141.9457  140.0575  167.3909 C.ar    1  UNL1        0.0578
     32 CL        140.9772  139.8513  168.5176 Cl      1  UNL1       -0.0822
     33 C         142.5475  138.8740  166.6930 C.ar    1  UNL1        0.0119
     34 C         143.5160  139.0802  165.5663 C.ar    1  UNL1        0.0077
     35 C         143.8827  140.4700  165.1374 C.ar    1  UNL1        0.0377
     36 BR        144.8512  140.6763  164.0107 Br      1  UNL1       -0.0489
@<TRIPOS>BOND
     1     1     2    2
     2     2    19    1
     3    19    20    1
     4    20    21    1
     5    21    22   ar
     6    22    23   ar
     7    23    24   ar
     8    24    27    1
     9    27    28    2
    10    27    29    1
    11    29    30   ar
    12    30    31   ar
    13    31    32    1
    14    31    33   ar
    15    33    34   ar
    16    34    35   ar
    17    35    36    1
    18    24    25   ar
    19    25    26   ar
    20     2     3   am
    21     3     5    1
    22     5     6   ar
    23     6     7   ar
    24     7     8   ar
    25     8     9   ar
    26     9    11    1
    27    11    12    2
    28    11    13   am
    29    13    15    1
    30    15    16    1
    31    16    17    1
    32    17    18    1
    33     9    10   ar
    34    26    21   ar
    35    10     5   ar
    36    35    29   ar
    37    18    16    1
    38     3     4    1
    39    13    14    1
@<TRIPOS>MOLECULE
*****
 36 39 0 0 0
SMALL
GASTEIGER

@<TRIPOS>ATOM
      1 O         139.4027  144.0211  159.8587 O.2     1  UNL1       -0.2707
      2 C         140.2518  145.2229  160.1496 C.2     1  UNL1        0.2707
      3 N         141.6761  145.2662  159.6812 N.am    1  UNL1       -0.2808
      4 H         142.2333  146.0550  159.8721 H       1  UNL1        0.1550
      5 C         142.2513  144.1076  158.9219 C.ar    1  UNL1        0.0536
      6 C         142.4723  144.2160  157.4422 C.ar    1  UNL1        0.0353
      7 C         143.0476  143.0574  156.6828 C.ar    1  UNL1        0.1003
      8 N         143.4019  141.7903  157.4031 N.ar    1  UNL1       -0.2392
      9 C         143.1809  141.6818  158.8828 C.ar    1  UNL1        0.1357
     10 C         142.6056  142.8404  159.6422 C.ar    1  UNL1        0.0384
     11 C         143.5352  140.4146  159.6031 C.2     1  UNL1        0.2636
     12 O         143.8187  139.1638  158.8251 O.2     1  UNL1       -0.2685
     13 N         143.6059  140.3982  161.1013 N.am    1  UNL1       -0.2996
     14 H         143.4198  141.2192  161.6119 H       1  UNL1        0.1498
     15 C         143.9602  139.1311  161.8216 C.3     1  UNL1        0.0897
     16 C         144.1982  139.1516  163.3024 C.3     1  UNL1        0.0196
     17 C         145.0716  139.4927  164.4732 C.3     1  UNL1        0.0017
     18 C         143.7369  138.8459  164.6966 C.3     1  UNL1        0.0017
     19 C         139.6764  146.3816  160.9090 C.3     1  UNL1        0.2897
     20 O         140.1156  146.6469  162.3184 O.3     1  UNL1       -0.4656
     21 C         140.5177  145.5064  163.2060 C.ar    1  UNL1        0.1393
     22 C         141.9457  145.0486  163.2384 C.ar    1  UNL1        0.0370
     23 C         142.3477  143.9081  164.1259 C.ar    1  UNL1        0.0063
     24 C         141.3217  143.2256  164.9811 C.ar    1  UNL1        0.0392
     25 C         139.8936  143.6834  164.9487 C.ar    1  UNL1        0.0063
     26 C         139.4916  144.8238  164.0612 C.ar    1  UNL1        0.0370
     27 C         141.7237  142.0851  165.8687 C.2     1  UNL1        0.1961
     28 O         143.1359  141.9817  166.3636 O.2     1  UNL1       -0.2866
     29 C         140.7136  141.0480  166.2613 C.ar    1  UNL1        0.0460
     30 C         140.2886  140.0029  165.2728 C.ar    1  UNL1        0.0151
     31 C         139.2785  138.9659  165.6655 C.ar    1  UNL1        0.0578
     32 CL        138.8535  137.9207  164.6770 Cl      1  UNL1       -0.0822
     33 C         138.6933  138.9740  167.0465 C.ar    1  UNL1        0.0119
     34 C         139.1182  140.0191  168.0350 C.ar    1  UNL1        0.0077
     35 C         140.1284  141.0561  167.6424 C.ar    1  UNL1        0.0377
     36 BR        140.5533  142.1013  168.6309 Br      1  UNL1       -0.0489
@<TRIPOS>BOND
     1     1     2    2
     2     2    19    1
     3    19    20    1
     4    20    21    1
     5    21    22   ar
     6    22    23   ar
     7    23    24   ar
     8    24    27    1
     9    27    28    2
    10    27    29    1
    11    29    30   ar
    12    30    31   ar
    13    31    32    1
    14    31    33   ar
    15    33    34   ar
    16    34    35   ar
    17    35    36    1
    18    24    25   ar
    19    25    26   ar
    20     2     3   am
    21     3     5    1
    22     5     6   ar
    23     6     7   ar
    24     7     8   ar
    25     8     9   ar
    26     9    11    1
    27    11    12    2
    28    11    13   am
    29    13    15    1
    30    15    16    1
    31    16    17    1
    32    17    18    1
    33     9    10   ar
    34    26    21   ar
    35    10     5   ar
    36    35    29   ar
    37    18    16    1
    38     3     4    1
    39    13    14    1
@<TRIPOS>MOLECULE
*****
 36 39 0 0 0
SMALL
GASTEIGER

@<TRIPOS>ATOM
      1 O         140.0500  143.2009  158.9543 O.2     1  UNL1       -0.2707
      2 C         140.9017  144.2984  159.5202 C.2     1  UNL1        0.2707
      3 N         142.3580  144.0565  159.7858 N.am    1  UNL1       -0.2808
      4 H         142.9169  144.7768  160.1572 H       1  UNL1        0.1550
      5 C         142.9627  142.7171  159.4855 C.ar    1  UNL1        0.0536
      6 C         143.8055  142.5328  158.2584 C.ar    1  UNL1        0.0353
      7 C         144.4102  141.1933  157.9581 C.ar    1  UNL1        0.1003
      8 N         144.1721  140.0382  158.8848 N.ar    1  UNL1       -0.2392
      9 C         143.3293  140.2224  160.1119 C.ar    1  UNL1        0.1357
     10 C         142.7246  141.5619  160.4123 C.ar    1  UNL1        0.0384
     11 C         143.0912  139.0673  161.0387 C.2     1  UNL1        0.2636
     12 O         144.0859  137.9467  161.1114 O.2     1  UNL1       -0.2685
     13 N         141.8586  139.0326  161.8927 N.am    1  UNL1       -0.2996
     14 H         141.2058  139.7680  161.8450 H       1  UNL1        0.1498
     15 C         141.6205  137.8774  162.8195 C.3     1  UNL1        0.0897
     16 C         140.2807  137.7020  163.4705 C.3     1  UNL1        0.0196
     17 C         139.4557  137.4493  164.6974 C.3     1  UNL1        0.0017
     18 C         138.7848  137.6508  163.3711 C.3     1  UNL1        0.0017
     19 C         140.2969  145.6379  159.8205 C.3     1  UNL1        0.2897
     20 O         139.5825  145.8640  161.1199 O.3     1  UNL1       -0.4656
     21 C         139.9468  145.0517  162.3272 C.ar    1  UNL1        0.1393
     22 C         139.0143  143.9869  162.8240 C.ar    1  UNL1        0.0370
     23 C         139.3786  143.1747  164.0312 C.ar    1  UNL1        0.0063
     24 C         140.6752  143.4272  164.7418 C.ar    1  UNL1        0.0392
     25 C         141.6077  144.4920  164.2451 C.ar    1  UNL1        0.0063
     26 C         141.2434  145.3042  163.0378 C.ar    1  UNL1        0.0370
     27 C         141.0395  142.6149  165.9491 C.2     1  UNL1        0.1961
     28 O         140.5349  143.0166  167.3034 O.2     1  UNL1       -0.2866
     29 C         141.9082  141.4010  165.8022 C.ar    1  UNL1        0.0460
     30 C         143.1201  141.4484  164.9195 C.ar    1  UNL1        0.0151
     31 C         143.9889  140.2344  164.7726 C.ar    1  UNL1        0.0578
     32 CL        145.2008  140.2819  163.8899 Cl      1  UNL1       -0.0822
     33 C         143.6457  138.9731  165.5082 C.ar    1  UNL1        0.0119
     34 C         142.4339  138.9257  166.3909 C.ar    1  UNL1        0.0077
     35 C         141.5651  140.1396  166.5379 C.ar    1  UNL1        0.0377
     36 BR        140.3532  140.0922  167.4205 Br      1  UNL1       -0.0489
@<TRIPOS>BOND
     1     1     2    2
     2     2    19    1
     3    19    20    1
     4    20    21    1
     5    21    22   ar
     6    22    23   ar
     7    23    24   ar
     8    24    27    1
     9    27    28    2
    10    27    29    1
    11    29    30   ar
    12    30    31   ar
    13    31    32    1
    14    31    33   ar
    15    33    34   ar
    16    34    35   ar
    17    35    36    1
    18    24    25   ar
    19    25    26   ar
    20     2     3   am
    21     3     5    1
    22     5     6   ar
    23     6     7   ar
    24     7     8   ar
    25     8     9   ar
    26     9    11    1
    27    11    12    2
    28    11    13   am
    29    13    15    1
    30    15    16    1
    31    16    17    1
    32    17    18    1
    33     9    10   ar
    34    26    21   ar
    35    10     5   ar
    36    35    29   ar
    37    18    16    1
    38     3     4    1
    39    13    14    1
