@<TRIPOS>MOLECULE
*****
 40 44 0 0 0
SMALL
GASTEIGER

@<TRIPOS>ATOM
      1 C         144.0992  140.4759  161.0611 C.ar    1  UNL1        0.2221
      2 N         144.1917  139.1330  160.3992 N.ar    1  UNL1       -0.2119
      3 C         143.7449  137.9030  161.1325 C.ar    1  UNL1        0.1050
      4 C         143.2057  138.0160  162.5277 C.ar    1  UNL1        0.0596
      5 C         143.1133  139.3589  163.1896 C.ar    1  UNL1        0.1683
      6 N         143.5600  140.5888  162.4563 N.ar    1  UNL1       -0.1944
      7 N         142.5741  139.4719  164.5847 N.ar    1  UNL1       -0.2096
      8 C         143.3474  139.2453  165.8499 C.ar    1  UNL1        0.1175
      9 C         142.4182  139.4647  167.0068 C.ar    1  UNL1        0.0796
     10 C         141.0705  139.8269  166.4565 C.ar    1  UNL1        0.0939
     11 C         139.8422  140.1312  167.2619 C.3     1  UNL1        0.0553
     12 N         141.1669  139.8314  164.9597 N.ar    1  UNL1       -0.1668
     13 N         142.7741  139.3432  168.4588 N.pl3   1  UNL1       -0.3306
     14 H         143.1479  138.5008  168.8052 H       1  UNL1        0.1469
     15 C         142.5604  140.5050  169.3832 C.3     1  UNL1        0.0884
     16 C         143.3631  141.7601  169.2082 C.3     1  UNL1        0.0530
     17 C         143.1494  142.9220  170.1326 C.3     1  UNL1        0.1440
     18 O         142.1331  142.8288  171.2318 O.3     1  UNL1       -0.3522
     19 C         141.3304  141.5737  171.4068 C.3     1  UNL1        0.1592
     20 C         141.5441  140.4119  170.4824 C.3     1  UNL1        0.0990
     21 N         140.7414  139.1569  170.6574 N.3     1  UNL1       -0.3189
     22 H         140.1042  139.2680  171.4461 H       1  UNL1        0.1189
     23 H         141.3698  138.3735  170.8357 H       1  UNL1        0.1189
     24 N         144.5460  141.7058  160.3278 N.pl3   1  UNL1       -0.2824
     25 H         145.5040  141.8578  160.1595 H       1  UNL1        0.1551
     26 C         140.5987  145.2075  161.0903 C.ar    1  UNL1        0.1517
     27 N         139.8597  146.0342  160.0801 N.ar    1  UNL1       -0.2260
     28 C         140.4213  145.7211  158.7249 C.ar    1  UNL1        0.1248
     29 C         139.9752  146.3226  157.4252 C.3     1  UNL1        0.0722
     30 N         141.5073  144.7009  158.8975 N.ar    1  UNL1       -0.2920
     31 C         142.4105  144.0200  157.9123 C.ar    1  UNL1        0.0824
     32 C         143.4234  143.0216  158.3891 C.ar    1  UNL1        0.0337
     33 C         143.5330  142.7042  159.8511 C.ar    1  UNL1        0.0535
     34 C         142.6298  143.3851  160.8362 C.ar    1  UNL1        0.0339
     35 C         141.6170  144.3835  160.3594 C.ar    1  UNL1        0.0884
     36 C         138.7796  144.8175  164.5959 C.3     1  UNL1        0.1110
     37 N         139.0172  144.8198  163.1148 N.am    1  UNL1       -0.2979
     38 C         140.3612  145.2052  162.5714 C.2     1  UNL1        0.2651
     39 O         141.4675  145.5882  163.5090 O.2     1  UNL1       -0.2684
     40 H         138.2910  144.5683  162.4994 H       1  UNL1        0.1498
@<TRIPOS>BOND
     1    36    37    1
     2    37    38   am
     3    38    39    2
     4    38    26    1
     5    26    27   ar
     6    27    28   ar
     7    28    29    1
     8    28    30   ar
     9    30    31   ar
    10    31    32   ar
    11    32    33   ar
    12    33    24    1
    13    24     1    1
    14     1     2   ar
    15     2     3   ar
    16     3     4   ar
    17     4     5   ar
    18     5     7    1
    19     7     8   ar
    20     8     9   ar
    21     9    13    1
    22    15    13    1
    23    15    16    1
    24    16    17    1
    25    17    18    1
    26    18    19    1
    27    19    20    1
    28    20    21    1
    29     9    10   ar
    30    10    11    1
    31    10    12   ar
    32     5     6   ar
    33    33    34   ar
    34    34    35   ar
    35    35    26   ar
    36    35    30   ar
    37     6     1   ar
    38    12     7   ar
    39    20    15    1
    40    37    40    1
    41    24    25    1
    42    13    14    1
    43    21    22    1
    44    21    23    1
@<TRIPOS>MOLECULE
*****
 40 44 0 0 0
SMALL
GASTEIGER

@<TRIPOS>ATOM
      1 C         138.7597  138.5383  165.1600 C.ar    1  UNL1        0.2221
      2 N         137.7117  138.2794  166.2015 N.ar    1  UNL1       -0.2119
      3 C         137.8556  138.8695  167.5731 C.ar    1  UNL1        0.1050
      4 C         139.0474  139.7184  167.9031 C.ar    1  UNL1        0.0596
      5 C         140.0954  139.9772  166.8616 C.ar    1  UNL1        0.1683
      6 N         139.9516  139.3872  165.4901 N.ar    1  UNL1       -0.1944
      7 N         141.2872  140.8261  167.1916 N.ar    1  UNL1       -0.2096
      8 C         142.1387  141.5714  166.2070 C.ar    1  UNL1        0.1175
      9 C         143.2145  142.2846  166.9711 C.ar    1  UNL1        0.0796
     10 C         143.0280  141.9801  168.4280 C.ar    1  UNL1        0.0939
     11 C         143.8825  142.4878  169.5513 C.3     1  UNL1        0.0553
     12 N         141.8368  141.0786  168.5642 N.ar    1  UNL1       -0.1668
     13 N         144.2884  143.1504  166.3818 N.pl3   1  UNL1       -0.3306
     14 H         145.0203  143.4824  166.9503 H       1  UNL1        0.1469
     15 C         144.2471  143.5102  164.9261 C.3     1  UNL1        0.0884
     16 C         143.6442  144.8136  164.4925 C.3     1  UNL1        0.0530
     17 C         143.6029  145.1734  163.0369 C.3     1  UNL1        0.1440
     18 O         144.1645  144.2300  162.0149 O.3     1  UNL1       -0.3522
     19 C         144.7675  142.9267  162.4485 C.3     1  UNL1        0.1592
     20 C         144.8087  142.5668  163.9041 C.3     1  UNL1        0.0990
     21 N         145.4116  141.2636  164.3376 N.3     1  UNL1       -0.3189
     22 H         145.7409  140.7522  163.5188 H       1  UNL1        0.1189
     23 H         144.7079  140.7087  164.8247 H       1  UNL1        0.1189
     24 N         138.6159  137.9483  163.7885 N.pl3   1  UNL1       -0.2824
     25 H         138.5065  136.9759  163.6799 H       1  UNL1        0.1551
     26 C         138.6335  142.7145  161.3996 C.ar    1  UNL1        0.1517
     27 N         138.6681  143.0383  159.9354 N.ar    1  UNL1       -0.2260
     28 C         138.6995  141.7454  159.1755 C.ar    1  UNL1        0.1248
     29 C         138.7391  141.6007  157.6830 C.3     1  UNL1        0.0722
     30 N         138.6843  140.6226  160.1700 N.ar    1  UNL1       -0.2920
     31 C         138.7022  139.1322  160.0015 C.ar    1  UNL1        0.0824
     32 C         138.6794  138.2408  161.2077 C.ar    1  UNL1        0.0337
     33 C         138.6387  138.8398  162.5823 C.ar    1  UNL1        0.0535
     34 C         138.6207  140.3301  162.7508 C.ar    1  UNL1        0.0339
     35 C         138.6435  141.2215  161.5446 C.ar    1  UNL1        0.0884
     36 C         139.5972  144.6554  164.7245 C.3     1  UNL1        0.1110
     37 N         139.6351  143.6608  163.6022 N.am    1  UNL1       -0.2979
     38 C         138.5956  143.7091  162.5218 C.2     1  UNL1        0.2651
     39 O         137.5183  144.7518  162.5638 O.2     1  UNL1       -0.2684
     40 H         140.3423  142.9764  163.5748 H       1  UNL1        0.1498
@<TRIPOS>BOND
     1    36    37    1
     2    37    38   am
     3    38    39    2
     4    38    26    1
     5    26    27   ar
     6    27    28   ar
     7    28    29    1
     8    28    30   ar
     9    30    31   ar
    10    31    32   ar
    11    32    33   ar
    12    33    24    1
    13    24     1    1
    14     1     2   ar
    15     2     3   ar
    16     3     4   ar
    17     4     5   ar
    18     5     7    1
    19     7     8   ar
    20     8     9   ar
    21     9    13    1
    22    15    13    1
    23    15    16    1
    24    16    17    1
    25    17    18    1
    26    18    19    1
    27    19    20    1
    28    20    21    1
    29     9    10   ar
    30    10    11    1
    31    10    12   ar
    32     5     6   ar
    33    33    34   ar
    34    34    35   ar
    35    35    26   ar
    36    35    30   ar
    37     6     1   ar
    38    12     7   ar
    39    20    15    1
    40    37    40    1
    41    24    25    1
    42    13    14    1
    43    21    22    1
    44    21    23    1
@<TRIPOS>MOLECULE
*****
 40 44 0 0 0
SMALL
GASTEIGER

@<TRIPOS>ATOM
      1 C         139.1001  139.4755  162.5042 C.ar    1  UNL1        0.2221
      2 N         139.2376  137.9941  162.6956 N.ar    1  UNL1       -0.2119
      3 C         140.2454  137.4537  163.6665 C.ar    1  UNL1        0.1050
      4 C         141.1155  138.3947  164.4458 C.ar    1  UNL1        0.0596
      5 C         140.9780  139.8760  164.2544 C.ar    1  UNL1        0.1683
      6 N         139.9703  140.4165  163.2836 N.ar    1  UNL1       -0.1944
      7 N         141.8481  140.8170  165.0337 N.ar    1  UNL1       -0.2096
      8 C         141.8685  140.9677  166.5260 C.ar    1  UNL1        0.1175
      9 C         142.8836  142.0163  166.8723 C.ar    1  UNL1        0.0796
     10 C         143.4907  142.5137  165.5939 C.ar    1  UNL1        0.0939
     11 C         144.5515  143.5673  165.4730 C.3     1  UNL1        0.0553
     12 N         142.8507  141.7724  164.4577 N.ar    1  UNL1       -0.1668
     13 N         143.2308  142.4852  168.2541 N.pl3   1  UNL1       -0.3306
     14 H         144.1295  142.8404  168.4421 H       1  UNL1        0.1469
     15 C         142.2086  142.4130  169.3495 C.3     1  UNL1        0.0884
     16 C         141.0255  143.3351  169.3333 C.3     1  UNL1        0.0530
     17 C         140.0033  143.2629  170.4287 C.3     1  UNL1        0.1440
     18 O         140.1641  142.2687  171.5403 O.3     1  UNL1       -0.3522
     19 C         141.3472  141.3466  171.5566 C.3     1  UNL1        0.1592
     20 C         142.3694  141.4188  170.4611 C.3     1  UNL1        0.0990
     21 N         143.5524  140.4968  170.4774 N.3     1  UNL1       -0.3189
     22 H         143.5017  139.8931  171.2980 H       1  UNL1        0.1189
     23 H         144.4112  141.0462  170.5119 H       1  UNL1        0.1189
     24 N         138.0924  140.0159  161.5334 N.pl3   1  UNL1       -0.2824
     25 H         137.1629  139.6924  161.5576 H       1  UNL1        0.1551
     26 C         140.1352  144.7343  160.1235 C.ar    1  UNL1        0.1517
     27 N         140.3193  145.3133  158.7521 N.ar    1  UNL1       -0.2260
     28 C         139.8142  144.3129  157.7550 C.ar    1  UNL1        0.1248
     29 C         139.8066  144.4804  156.2644 C.3     1  UNL1        0.0722
     30 N         139.3179  143.1157  158.5103 N.ar    1  UNL1       -0.2920
     31 C         138.7110  141.8220  158.0541 C.ar    1  UNL1        0.0824
     32 C         138.3025  140.7888  159.0619 C.ar    1  UNL1        0.0337
     33 C         138.5009  141.0492  160.5257 C.ar    1  UNL1        0.0535
     34 C         139.1079  142.3429  160.9818 C.ar    1  UNL1        0.0339
     35 C         139.5163  143.3761  159.9741 C.ar    1  UNL1        0.0884
     36 C         141.8871  145.4237  163.6173 C.3     1  UNL1        0.1110
     37 N         141.5172  144.7609  162.3235 N.am    1  UNL1       -0.2979
     38 C         140.5051  145.3971  161.4173 C.2     1  UNL1        0.2651
     39 O         139.8630  146.6960  161.8051 O.2     1  UNL1       -0.2684
     40 H         141.9387  143.9083  162.0690 H       1  UNL1        0.1498
@<TRIPOS>BOND
     1    36    37    1
     2    37    38   am
     3    38    39    2
     4    38    26    1
     5    26    27   ar
     6    27    28   ar
     7    28    29    1
     8    28    30   ar
     9    30    31   ar
    10    31    32   ar
    11    32    33   ar
    12    33    24    1
    13    24     1    1
    14     1     2   ar
    15     2     3   ar
    16     3     4   ar
    17     4     5   ar
    18     5     7    1
    19     7     8   ar
    20     8     9   ar
    21     9    13    1
    22    15    13    1
    23    15    16    1
    24    16    17    1
    25    17    18    1
    26    18    19    1
    27    19    20    1
    28    20    21    1
    29     9    10   ar
    30    10    11    1
    31    10    12   ar
    32     5     6   ar
    33    33    34   ar
    34    34    35   ar
    35    35    26   ar
    36    35    30   ar
    37     6     1   ar
    38    12     7   ar
    39    20    15    1
    40    37    40    1
    41    24    25    1
    42    13    14    1
    43    21    22    1
    44    21    23    1
@<TRIPOS>MOLECULE
*****
 40 44 0 0 0
SMALL
GASTEIGER

@<TRIPOS>ATOM
      1 C         138.7784  143.3708  161.7977 C.ar    1  UNL1        0.2221
      2 N         138.7954  144.7853  162.2965 N.ar    1  UNL1       -0.2119
      3 C         138.8245  145.0604  163.7708 C.ar    1  UNL1        0.1050
      4 C         138.8367  143.9209  164.7462 C.ar    1  UNL1        0.0596
      5 C         138.8197  142.5064  164.2474 C.ar    1  UNL1        0.1683
      6 N         138.7905  142.2313  162.7732 N.ar    1  UNL1       -0.1944
      7 N         138.8318  141.3670  165.2228 N.ar    1  UNL1       -0.2096
      8 C         139.6167  141.3078  166.4998 C.ar    1  UNL1        0.1175
      9 C         139.3312  139.9909  167.1587 C.ar    1  UNL1        0.0796
     10 C         138.3699  139.2362  166.2890 C.ar    1  UNL1        0.0939
     11 C         137.8146  137.8707  166.5669 C.3     1  UNL1        0.0553
     12 N         138.0613  140.0867  165.0926 N.ar    1  UNL1       -0.1668
     13 N         139.9060  139.5126  168.4590 N.pl3   1  UNL1       -0.3306
     14 H         139.8118  138.5684  168.7212 H       1  UNL1        0.1469
     15 C         140.6244  140.4731  169.3599 C.3     1  UNL1        0.0884
     16 C         139.8448  141.4553  170.1831 C.3     1  UNL1        0.0530
     17 C         140.5632  142.4158  171.0840 C.3     1  UNL1        0.1440
     18 O         142.0610  142.3940  171.1616 O.3     1  UNL1       -0.3522
     19 C         142.8406  141.4117  170.3384 C.3     1  UNL1        0.1592
     20 C         142.1222  140.4513  169.4375 C.3     1  UNL1        0.0990
     21 N         142.9017  139.4691  168.6144 N.3     1  UNL1       -0.3189
     22 H         143.8987  139.5940  168.7900 H       1  UNL1        0.1189
     23 H         142.7085  139.6256  167.6252 H       1  UNL1        0.1189
     24 N         138.7492  143.0957  160.3234 N.pl3   1  UNL1       -0.2824
     25 H         137.8873  143.0216  159.8535 H       1  UNL1        0.1551
     26 C         144.0574  142.7315  159.9864 C.ar    1  UNL1        0.1517
     27 N         144.9173  142.5454  158.7715 N.ar    1  UNL1       -0.2260
     28 C         144.0173  142.4698  157.5739 C.ar    1  UNL1        0.1248
     29 C         144.4563  142.2870  156.1513 C.3     1  UNL1        0.0722
     30 N         142.6013  142.6091  158.0486 N.ar    1  UNL1       -0.2920
     31 C         141.2925  142.6096  157.3159 C.ar    1  UNL1        0.0824
     32 C         140.0085  142.7718  158.0741 C.ar    1  UNL1        0.0337
     33 C         140.0333  142.9335  159.5652 C.ar    1  UNL1        0.0535
     34 C         141.3421  142.9330  160.2980 C.ar    1  UNL1        0.0339
     35 C         142.6261  142.7708  159.5397 C.ar    1  UNL1        0.0884
     36 C         145.6092  141.7886  163.5154 C.3     1  UNL1        0.1110
     37 N         145.1230  141.6638  162.1019 N.am    1  UNL1       -0.2979
     38 C         144.5436  142.8562  161.4000 C.2     1  UNL1        0.2651
     39 O         144.4504  144.1732  162.1117 O.2     1  UNL1       -0.2684
     40 H         145.1842  140.7993  161.6348 H       1  UNL1        0.1498
@<TRIPOS>BOND
     1    36    37    1
     2    37    38   am
     3    38    39    2
     4    38    26    1
     5    26    27   ar
     6    27    28   ar
     7    28    29    1
     8    28    30   ar
     9    30    31   ar
    10    31    32   ar
    11    32    33   ar
    12    33    24    1
    13    24     1    1
    14     1     2   ar
    15     2     3   ar
    16     3     4   ar
    17     4     5   ar
    18     5     7    1
    19     7     8   ar
    20     8     9   ar
    21     9    13    1
    22    15    13    1
    23    15    16    1
    24    16    17    1
    25    17    18    1
    26    18    19    1
    27    19    20    1
    28    20    21    1
    29     9    10   ar
    30    10    11    1
    31    10    12   ar
    32     5     6   ar
    33    33    34   ar
    34    34    35   ar
    35    35    26   ar
    36    35    30   ar
    37     6     1   ar
    38    12     7   ar
    39    20    15    1
    40    37    40    1
    41    24    25    1
    42    13    14    1
    43    21    22    1
    44    21    23    1
@<TRIPOS>MOLECULE
*****
 40 44 0 0 0
SMALL
GASTEIGER

@<TRIPOS>ATOM
      1 C         140.6310  144.7518  161.7694 C.ar    1  UNL1        0.2221
      2 N         139.2836  145.2953  162.1425 N.ar    1  UNL1       -0.2119
      3 C         138.5480  144.7318  163.3222 C.ar    1  UNL1        0.1050
      4 C         139.1598  143.6250  164.1287 C.ar    1  UNL1        0.0596
      5 C         140.5072  143.0815  163.7556 C.ar    1  UNL1        0.1683
      6 N         141.2428  143.6449  162.5760 N.ar    1  UNL1       -0.1944
      7 N         141.1190  141.9746  164.5621 N.ar    1  UNL1       -0.2096
      8 C         141.6799  142.0994  165.9477 C.ar    1  UNL1        0.1175
      9 C         142.1849  140.7506  166.3666 C.ar    1  UNL1        0.0796
     10 C         141.9360  139.7921  165.2399 C.ar    1  UNL1        0.0939
     11 C         142.2848  138.3332  165.2301 C.3     1  UNL1        0.0553
     12 N         141.2773  140.5486  164.1247 N.ar    1  UNL1       -0.1668
     13 N         142.8261  140.4184  167.6813 N.pl3   1  UNL1       -0.3306
     14 H         143.7223  140.0116  167.7030 H       1  UNL1        0.1469
     15 C         142.1018  140.7062  168.9630 C.3     1  UNL1        0.0884
     16 C         140.9192  139.8729  169.3595 C.3     1  UNL1        0.0530
     17 C         140.1948  140.1606  170.6411 C.3     1  UNL1        0.1440
     18 O         140.6531  141.2816  171.5263 O.3     1  UNL1       -0.3522
     19 C         141.8358  142.1149  171.1297 C.3     1  UNL1        0.1592
     20 C         142.5601  141.8271  169.8481 C.3     1  UNL1        0.0990
     21 N         143.7426  142.6603  169.4516 N.3     1  UNL1       -0.3189
     22 H         143.9122  143.3706  170.1638 H       1  UNL1        0.1189
     23 H         143.5547  143.1135  168.5574 H       1  UNL1        0.1189
     24 N         141.3665  145.3152  160.5898 N.pl3   1  UNL1       -0.2824
     25 H         142.1040  145.9525  160.7282 H       1  UNL1        0.1551
     26 C         139.5163  146.3026  155.6883 C.ar    1  UNL1        0.1517
     27 N         139.3186  145.3541  154.5432 N.ar    1  UNL1       -0.2260
     28 C         139.7426  143.9879  154.9946 C.ar    1  UNL1        0.1248
     29 C         139.7123  142.7371  154.1673 C.3     1  UNL1        0.0722
     30 N         140.2024  144.0921  156.4187 N.ar    1  UNL1       -0.2920
     31 C         140.7303  143.0692  157.3803 C.ar    1  UNL1        0.0824
     32 C         141.1184  143.4769  158.7707 C.ar    1  UNL1        0.0337
     33 C         140.9785  144.9075  159.1994 C.ar    1  UNL1        0.0535
     34 C         140.4505  145.9304  158.2377 C.ar    1  UNL1        0.0339
     35 C         140.0625  145.5227  156.8474 C.ar    1  UNL1        0.0884
     36 C         138.2975  149.8920  156.8636 C.3     1  UNL1        0.1110
     37 N         138.5940  148.4217  156.8755 N.am    1  UNL1       -0.2979
     38 C         139.2198  147.7730  155.6764 C.2     1  UNL1        0.2651
     39 O         139.5491  148.5948  154.4656 O.2     1  UNL1       -0.2684
     40 H         138.3778  147.8824  157.6702 H       1  UNL1        0.1498
@<TRIPOS>BOND
     1    36    37    1
     2    37    38   am
     3    38    39    2
     4    38    26    1
     5    26    27   ar
     6    27    28   ar
     7    28    29    1
     8    28    30   ar
     9    30    31   ar
    10    31    32   ar
    11    32    33   ar
    12    33    24    1
    13    24     1    1
    14     1     2   ar
    15     2     3   ar
    16     3     4   ar
    17     4     5   ar
    18     5     7    1
    19     7     8   ar
    20     8     9   ar
    21     9    13    1
    22    15    13    1
    23    15    16    1
    24    16    17    1
    25    17    18    1
    26    18    19    1
    27    19    20    1
    28    20    21    1
    29     9    10   ar
    30    10    11    1
    31    10    12   ar
    32     5     6   ar
    33    33    34   ar
    34    34    35   ar
    35    35    26   ar
    36    35    30   ar
    37     6     1   ar
    38    12     7   ar
    39    20    15    1
    40    37    40    1
    41    24    25    1
    42    13    14    1
    43    21    22    1
    44    21    23    1
@<TRIPOS>MOLECULE
*****
 40 44 0 0 0
SMALL
GASTEIGER

@<TRIPOS>ATOM
      1 C         140.1707  144.2851  162.2411 C.ar    1  UNL1        0.2221
      2 N         138.9067  145.0759  162.0771 N.ar    1  UNL1       -0.2119
      3 C         137.6973  144.7354  162.8967 C.ar    1  UNL1        0.1050
      4 C         137.7520  143.6042  163.8801 C.ar    1  UNL1        0.0596
      5 C         139.0160  142.8134  164.0441 C.ar    1  UNL1        0.1683
      6 N         140.2253  143.1538  163.2246 N.ar    1  UNL1       -0.1944
      7 N         139.0707  141.6821  165.0276 N.ar    1  UNL1       -0.2096
      8 C         140.0810  141.5148  166.1236 C.ar    1  UNL1        0.1175
      9 C         139.7595  140.2488  166.8611 C.ar    1  UNL1        0.0796
     10 C         138.5504  139.6338  166.2209 C.ar    1  UNL1        0.0939
     11 C         137.8839  138.3570  166.6402 C.3     1  UNL1        0.0553
     12 N         138.1247  140.5196  165.0877 N.ar    1  UNL1       -0.1668
     13 N         140.5144  139.6951  168.0331 N.pl3   1  UNL1       -0.3306
     14 H         140.9283  138.8037  167.9753 H       1  UNL1        0.1469
     15 C         140.6386  140.4995  169.2931 C.3     1  UNL1        0.0884
     16 C         139.6229  141.5566  169.6112 C.3     1  UNL1        0.0530
     17 C         139.7471  142.3610  170.8712 C.3     1  UNL1        0.1440
     18 O         140.8870  142.1084  171.8130 O.3     1  UNL1       -0.3522
     19 C         141.9026  141.0513  171.4948 C.3     1  UNL1        0.1592
     20 C         141.7784  140.2469  170.2348 C.3     1  UNL1        0.0990
     21 N         142.7940  139.1899  169.9167 N.3     1  UNL1       -0.3189
     22 H         143.4921  139.1546  170.6596 H       1  UNL1        0.1189
     23 H         143.2501  139.4120  169.0318 H       1  UNL1        0.1189
     24 N         141.3800  144.6256  161.4216 N.pl3   1  UNL1       -0.2824
     25 H         141.7875  145.5189  161.4931 H       1  UNL1        0.1551
     26 C         143.7962  139.9917  160.3667 C.ar    1  UNL1        0.1517
     27 N         144.1944  139.4130  159.0413 N.ar    1  UNL1       -0.2260
     28 C         143.7920  140.3846  157.9717 C.ar    1  UNL1        0.1248
     29 C         143.9999  140.2081  156.4967 C.3     1  UNL1        0.0722
     30 N         143.1452  141.5637  158.6360 N.ar    1  UNL1       -0.2920
     31 C         142.5542  142.8272  158.0843 C.ar    1  UNL1        0.0824
     32 C         141.9658  143.8477  159.0129 C.ar    1  UNL1        0.0337
     33 C         141.9684  143.6049  160.4931 C.ar    1  UNL1        0.0535
     34 C         142.5594  142.3415  161.0448 C.ar    1  UNL1        0.0339
     35 C         143.1478  141.3209  160.1163 C.ar    1  UNL1        0.0884
     36 C         144.9955  139.4395  164.1094 C.3     1  UNL1        0.1110
     37 N         144.7826  140.0779  162.7688 N.am    1  UNL1       -0.2979
     38 C         144.0092  139.3532  161.7073 C.2     1  UNL1        0.2651
     39 O         143.4488  137.9902  161.9864 O.2     1  UNL1       -0.2684
     40 H         145.1504  140.9726  162.5857 H       1  UNL1        0.1498
@<TRIPOS>BOND
     1    36    37    1
     2    37    38   am
     3    38    39    2
     4    38    26    1
     5    26    27   ar
     6    27    28   ar
     7    28    29    1
     8    28    30   ar
     9    30    31   ar
    10    31    32   ar
    11    32    33   ar
    12    33    24    1
    13    24     1    1
    14     1     2   ar
    15     2     3   ar
    16     3     4   ar
    17     4     5   ar
    18     5     7    1
    19     7     8   ar
    20     8     9   ar
    21     9    13    1
    22    15    13    1
    23    15    16    1
    24    16    17    1
    25    17    18    1
    26    18    19    1
    27    19    20    1
    28    20    21    1
    29     9    10   ar
    30    10    11    1
    31    10    12   ar
    32     5     6   ar
    33    33    34   ar
    34    34    35   ar
    35    35    26   ar
    36    35    30   ar
    37     6     1   ar
    38    12     7   ar
    39    20    15    1
    40    37    40    1
    41    24    25    1
    42    13    14    1
    43    21    22    1
    44    21    23    1
@<TRIPOS>MOLECULE
*****
 40 44 0 0 0
SMALL
GASTEIGER

@<TRIPOS>ATOM
      1 C         141.2953  139.1598  160.5566 C.ar    1  UNL1        0.2221
      2 N         142.3303  138.2383  159.9824 N.ar    1  UNL1       -0.2119
      3 C         143.4944  137.8019  160.8217 C.ar    1  UNL1        0.1050
      4 C         143.6236  138.2870  162.2352 C.ar    1  UNL1        0.0596
      5 C         142.5886  139.2085  162.8094 C.ar    1  UNL1        0.1683
      6 N         141.4245  139.6449  161.9701 N.ar    1  UNL1       -0.1944
      7 N         142.7177  139.6936  164.2229 N.ar    1  UNL1       -0.2096
      8 C         142.6417  138.8443  165.4570 C.ar    1  UNL1        0.1175
      9 C         142.8225  139.7390  166.6473 C.ar    1  UNL1        0.0796
     10 C         143.0104  141.1412  166.1488 C.ar    1  UNL1        0.0939
     11 C         143.2253  142.3580  166.9994 C.3     1  UNL1        0.0553
     12 N         142.9456  141.1132  164.6504 N.ar    1  UNL1       -0.1668
     13 N         142.8166  139.3072  168.0837 N.pl3   1  UNL1       -0.3306
     14 H         143.4857  138.6610  168.4063 H       1  UNL1        0.1469
     15 C         141.7913  139.8601  169.0288 C.3     1  UNL1        0.0884
     16 C         140.3575  139.9673  168.6010 C.3     1  UNL1        0.0530
     17 C         139.3322  140.5201  169.5460 C.3     1  UNL1        0.1440
     18 O         139.7405  140.9657  170.9189 O.3     1  UNL1       -0.3522
     19 C         141.1743  140.8584  171.3467 C.3     1  UNL1        0.1592
     20 C         142.1996  140.3056  170.4016 C.3     1  UNL1        0.0990
     21 N         143.6333  140.1984  170.8294 N.3     1  UNL1       -0.3189
     22 H         143.7298  140.5437  171.7844 H       1  UNL1        0.1189
     23 H         144.2168  140.7559  170.2057 H       1  UNL1        0.1189
     24 N         140.1312  139.5962  159.7173 N.pl3   1  UNL1       -0.2824
     25 H         139.3342  139.0228  159.6449 H       1  UNL1        0.1551
     26 C         140.3371  144.9198  159.5168 C.ar    1  UNL1        0.1517
     27 N         140.3711  145.8203  158.3177 N.ar    1  UNL1       -0.2260
     28 C         140.3369  144.9590  157.0901 C.ar    1  UNL1        0.1248
     29 C         140.3547  145.4451  155.6712 C.3     1  UNL1        0.0722
     30 N         140.2818  143.5262  157.5305 N.ar    1  UNL1       -0.2920
     31 C         140.2315  142.2404  156.7596 C.ar    1  UNL1        0.0824
     32 C         140.1813  140.9305  157.4886 C.ar    1  UNL1        0.0337
     33 C         140.1814  140.9062  158.9884 C.ar    1  UNL1        0.0535
     34 C         140.2317  142.1920  159.7593 C.ar    1  UNL1        0.0339
     35 C         140.2819  143.5019  159.0303 C.ar    1  UNL1        0.0884
     36 C         141.5440  145.4601  163.2587 C.3     1  UNL1        0.1110
     37 N         141.5259  145.0200  161.8248 N.am    1  UNL1       -0.2979
     38 C         140.3552  145.3599  160.9507 C.2     1  UNL1        0.2651
     39 O         139.2027  146.1397  161.5105 O.2     1  UNL1       -0.2684
     40 H         142.2824  144.5082  161.4574 H       1  UNL1        0.1498
@<TRIPOS>BOND
     1    36    37    1
     2    37    38   am
     3    38    39    2
     4    38    26    1
     5    26    27   ar
     6    27    28   ar
     7    28    29    1
     8    28    30   ar
     9    30    31   ar
    10    31    32   ar
    11    32    33   ar
    12    33    24    1
    13    24     1    1
    14     1     2   ar
    15     2     3   ar
    16     3     4   ar
    17     4     5   ar
    18     5     7    1
    19     7     8   ar
    20     8     9   ar
    21     9    13    1
    22    15    13    1
    23    15    16    1
    24    16    17    1
    25    17    18    1
    26    18    19    1
    27    19    20    1
    28    20    21    1
    29     9    10   ar
    30    10    11    1
    31    10    12   ar
    32     5     6   ar
    33    33    34   ar
    34    34    35   ar
    35    35    26   ar
    36    35    30   ar
    37     6     1   ar
    38    12     7   ar
    39    20    15    1
    40    37    40    1
    41    24    25    1
    42    13    14    1
    43    21    22    1
    44    21    23    1
@<TRIPOS>MOLECULE
*****
 40 44 0 0 0
SMALL
GASTEIGER

@<TRIPOS>ATOM
      1 C         142.4203  144.4077  162.0578 C.ar    1  UNL1        0.2221
      2 N         143.9076  144.3845  162.2512 N.ar    1  UNL1       -0.2119
      3 C         144.5152  143.4872  163.2884 C.ar    1  UNL1        0.1050
      4 C         143.6354  142.6132  164.1323 C.ar    1  UNL1        0.0596
      5 C         142.1481  142.6364  163.9389 C.ar    1  UNL1        0.1683
      6 N         141.5406  143.5336  162.9017 N.ar    1  UNL1       -0.1944
      7 N         141.2683  141.7624  164.7827 N.ar    1  UNL1       -0.2096
      8 C         141.5548  141.3154  166.1856 C.ar    1  UNL1        0.1175
      9 C         140.4111  140.4586  166.6417 C.ar    1  UNL1        0.0796
     10 C         139.4179  140.3761  165.5207 C.ar    1  UNL1        0.0939
     11 C         138.1223  139.6205  165.5444 C.3     1  UNL1        0.0553
     12 N         139.9477  141.1819  164.3717 N.ar    1  UNL1       -0.1668
     13 N         140.2832  139.8000  167.9833 N.pl3   1  UNL1       -0.3306
     14 H         139.9726  138.8679  168.0465 H       1  UNL1        0.1469
     15 C         140.6284  140.5616  169.2287 C.3     1  UNL1        0.0884
     16 C         139.7628  141.7029  169.6740 C.3     1  UNL1        0.0530
     17 C         140.1080  142.4644  170.9194 C.3     1  UNL1        0.1440
     18 O         141.3187  142.0847  171.7194 O.3     1  UNL1       -0.3522
     19 C         142.1842  140.9434  171.2740 C.3     1  UNL1        0.1592
     20 C         141.8390  140.1818  170.0287 C.3     1  UNL1        0.0990
     21 N         142.7045  139.0406  169.5834 N.3     1  UNL1       -0.3189
     22 H         143.4766  138.9232  170.2395 H       1  UNL1        0.1189
     23 H         143.0753  139.2376  168.6538 H       1  UNL1        0.1189
     24 N         141.8128  145.3049  161.0205 N.pl3   1  UNL1       -0.2824
     25 H         141.9864  146.2736  161.0450 H       1  UNL1        0.1551
     26 C         138.4355  141.6600  159.0885 C.ar    1  UNL1        0.1517
     27 N         137.7941  141.5889  157.7344 N.ar    1  UNL1       -0.2260
     28 C         138.2647  142.7685  156.9362 C.ar    1  UNL1        0.1248
     29 C         137.8720  143.0913  155.5249 C.3     1  UNL1        0.0722
     30 N         139.1969  143.5686  157.7969 N.ar    1  UNL1       -0.2920
     31 C         139.9633  144.8324  157.5412 C.ar    1  UNL1        0.0824
     32 C         140.8352  145.4111  158.6157 C.ar    1  UNL1        0.0337
     33 C         140.9408  144.7260  159.9460 C.ar    1  UNL1        0.0535
     34 C         140.1744  143.4622  160.2016 C.ar    1  UNL1        0.0339
     35 C         139.3025  142.8835  159.1271 C.ar    1  UNL1        0.0884
     36 C         138.6780  138.3387  161.2473 C.3     1  UNL1        0.1110
     37 N         138.8698  139.3189  160.1282 N.am    1  UNL1       -0.2979
     38 C         138.2436  140.6798  160.2075 C.2     1  UNL1        0.2651
     39 O         137.4257  141.0601  161.4059 O.2     1  UNL1       -0.2684
     40 H         139.4067  139.0692  159.3417 H       1  UNL1        0.1498
@<TRIPOS>BOND
     1    36    37    1
     2    37    38   am
     3    38    39    2
     4    38    26    1
     5    26    27   ar
     6    27    28   ar
     7    28    29    1
     8    28    30   ar
     9    30    31   ar
    10    31    32   ar
    11    32    33   ar
    12    33    24    1
    13    24     1    1
    14     1     2   ar
    15     2     3   ar
    16     3     4   ar
    17     4     5   ar
    18     5     7    1
    19     7     8   ar
    20     8     9   ar
    21     9    13    1
    22    15    13    1
    23    15    16    1
    24    16    17    1
    25    17    18    1
    26    18    19    1
    27    19    20    1
    28    20    21    1
    29     9    10   ar
    30    10    11    1
    31    10    12   ar
    32     5     6   ar
    33    33    34   ar
    34    34    35   ar
    35    35    26   ar
    36    35    30   ar
    37     6     1   ar
    38    12     7   ar
    39    20    15    1
    40    37    40    1
    41    24    25    1
    42    13    14    1
    43    21    22    1
    44    21    23    1
@<TRIPOS>MOLECULE
*****
 40 44 0 0 0
SMALL
GASTEIGER

@<TRIPOS>ATOM
      1 C         143.6596  139.5117  160.0157 C.ar    1  UNL1        0.2221
      2 N         143.6380  138.7853  158.7035 N.ar    1  UNL1       -0.2119
      3 C         142.8985  139.3681  157.5358 C.ar    1  UNL1        0.1050
      4 C         142.1806  140.6771  157.6802 C.ar    1  UNL1        0.0596
      5 C         142.2022  141.4035  158.9925 C.ar    1  UNL1        0.1683
      6 N         142.9417  140.8209  160.1602 N.ar    1  UNL1       -0.1944
      7 N         141.4843  142.7126  159.1369 N.ar    1  UNL1       -0.2096
      8 C         140.8241  143.2232  160.3833 C.ar    1  UNL1        0.1175
      9 C         140.2323  144.5671  160.0771 C.ar    1  UNL1        0.0796
     10 C         140.5268  144.8871  158.6415 C.ar    1  UNL1        0.0939
     11 C         140.1191  146.1342  157.9145 C.3     1  UNL1        0.0553
     12 N         141.3006  143.7409  158.0605 N.ar    1  UNL1       -0.1668
     13 N         139.4784  145.4381  161.0378 N.pl3   1  UNL1       -0.3306
     14 H         139.1567  146.3234  160.7513 H       1  UNL1        0.1469
     15 C         139.2147  144.9604  162.4350 C.3     1  UNL1        0.0884
     16 C         137.9018  144.3181  162.7728 C.3     1  UNL1        0.0530
     17 C         137.6381  143.8403  164.1700 C.3     1  UNL1        0.1440
     18 O         138.6871  144.0049  165.2295 O.3     1  UNL1       -0.3522
     19 C         139.9999  144.6472  164.8917 C.3     1  UNL1        0.1592
     20 C         140.2637  145.1250  163.4945 C.3     1  UNL1        0.0990
     21 N         141.5764  145.7673  163.1568 N.3     1  UNL1       -0.3189
     22 H         142.1646  145.7969  163.9896 H       1  UNL1        0.1189
     23 H         141.4140  146.7167  162.8212 H       1  UNL1        0.1189
     24 N         144.3991  138.9290  161.1834 N.pl3   1  UNL1       -0.2824
     25 H         145.2505  138.4559  161.0405 H       1  UNL1        0.1551
     26 C         140.3908  139.2773  164.6815 C.ar    1  UNL1        0.1517
     27 N         140.4476  139.4261  166.1730 N.ar    1  UNL1       -0.2260
     28 C         141.8907  139.4670  166.5801 C.ar    1  UNL1        0.1248
     29 C         142.4080  139.6069  167.9811 C.3     1  UNL1        0.0722
     30 N         142.7258  139.3435  165.3402 N.ar    1  UNL1       -0.2920
     31 C         144.2106  139.3226  165.1280 C.ar    1  UNL1        0.0824
     32 C         144.7683  139.1844  163.7425 C.ar    1  UNL1        0.0337
     33 C         143.8413  139.0672  162.5691 C.ar    1  UNL1        0.0535
     34 C         142.3565  139.0881  162.7812 C.ar    1  UNL1        0.0339
     35 C         141.7988  139.2262  164.1668 C.ar    1  UNL1        0.0884
     36 C         137.8250  138.1469  161.8727 C.3     1  UNL1        0.1110
     37 N         139.0710  138.2301  162.7037 N.am    1  UNL1       -0.2979
     38 C         139.1448  139.1942  163.8505 C.2     1  UNL1        0.2651
     39 O         137.9725  140.0750  164.1663 O.2     1  UNL1       -0.2684
     40 H         139.8405  137.6519  162.4963 H       1  UNL1        0.1498
@<TRIPOS>BOND
     1    36    37    1
     2    37    38   am
     3    38    39    2
     4    38    26    1
     5    26    27   ar
     6    27    28   ar
     7    28    29    1
     8    28    30   ar
     9    30    31   ar
    10    31    32   ar
    11    32    33   ar
    12    33    24    1
    13    24     1    1
    14     1     2   ar
    15     2     3   ar
    16     3     4   ar
    17     4     5   ar
    18     5     7    1
    19     7     8   ar
    20     8     9   ar
    21     9    13    1
    22    15    13    1
    23    15    16    1
    24    16    17    1
    25    17    18    1
    26    18    19    1
    27    19    20    1
    28    20    21    1
    29     9    10   ar
    30    10    11    1
    31    10    12   ar
    32     5     6   ar
    33    33    34   ar
    34    34    35   ar
    35    35    26   ar
    36    35    30   ar
    37     6     1   ar
    38    12     7   ar
    39    20    15    1
    40    37    40    1
    41    24    25    1
    42    13    14    1
    43    21    22    1
    44    21    23    1
