@<TRIPOS>MOLECULE
*****
 30 32 0 0 0
SMALL
GASTEIGER

@<TRIPOS>ATOM
      1 O         139.1154  140.4613  165.6262 O.3     1  UNL1       -0.4776
      2 C         142.8359  139.1788  166.1389 C.ar    1  UNL1       -0.0191
      3 C         141.5641  139.6076  165.4690 C.ar    1  UNL1        0.0342
      4 C         140.3871  140.0325  166.2961 C.ar    1  UNL1        0.1555
      5 C         140.4818  140.0285  167.7931 C.ar    1  UNL1        0.1151
      6 N         139.3048  140.4533  168.6202 N.ar    1  UNL1       -0.2408
      7 C         139.3995  140.4493  170.1172 C.ar    1  UNL1        0.0989
      8 C         140.6713  140.0205  170.7871 C.ar    1  UNL1        0.0207
      9 C         141.8483  139.5957  169.9600 C.ar    1  UNL1        0.0032
     10 C         141.7535  139.5996  168.4630 C.ar    1  UNL1        0.0204
     11 C         142.9306  139.1748  167.6358 C.ar    1  UNL1       -0.0026
     12 C         144.0129  138.7539  165.3117 C.3     1  UNL1        0.0265
     13 C         144.2891  139.4260  163.9994 C.3     1  UNL1        0.0047
     14 C         144.7481  141.9493  164.4143 C.3     1  UNL1        0.0000
     15 C         145.2148  140.6047  163.9406 C.3     1  UNL1        0.0003
     16 C         139.0819  141.7254  164.8194 C.3     1  UNL1        0.1688
     17 C         139.9929  142.8640  165.1713 C.3     1  UNL1        0.0609
     18 C         139.9595  144.1281  164.3646 C.3     1  UNL1        0.0758
     19 N         139.0152  144.2537  163.2059 N.3     1  UNL1       -0.2724
     20 C         138.1042  143.1151  162.8540 C.3     1  UNL1        0.0758
     21 C         138.1376  141.8509  163.6608 C.3     1  UNL1        0.0609
     22 C         138.9818  145.5178  162.3992 C.3     1  UNL1        0.0738
     23 C         140.1944  145.9476  161.6279 C.3     1  UNL1        0.0409
     24 C         140.7625  145.0548  160.5649 C.3     1  UNL1        0.1306
     25 C         140.5240  145.3667  159.1172 C.3     1  UNL1        0.0253
     26 S         141.5691  143.8500  160.9495 S.O2    1  UNL1       -0.0116
     27 O         142.5801  144.7383  161.6118 O.2     1  UNL1       -0.1730
     28 O         140.5581  142.9617  160.2871 O.2     1  UNL1       -0.1730
     29 C         142.3757  142.6452  161.3341 C.3     1  UNL1        0.1508
     30 C         141.7403  141.5369  162.1201 C.3     1  UNL1        0.0271
@<TRIPOS>BOND
     1    14    15    1
     2    15    13    1
     3    13    12    1
     4    12     2    1
     5     2     3   ar
     6     3     4   ar
     7     4     1    1
     8     1    16    1
     9    16    17    1
    10    17    18    1
    11    18    19    1
    12    19    22    1
    13    22    23    1
    14    23    24    1
    15    24    25    1
    16    24    26    1
    17    26    27    2
    18    26    28    2
    19    26    29    1
    20    29    30    1
    21    19    20    1
    22    20    21    1
    23     4     5   ar
    24     5     6   ar
    25     6     7   ar
    26     7     8   ar
    27     8     9   ar
    28     9    10   ar
    29    10    11   ar
    30    11     2   ar
    31    21    16    1
    32    10     5   ar
@<TRIPOS>MOLECULE
*****
 30 32 0 0 0
SMALL
GASTEIGER

@<TRIPOS>ATOM
      1 O         138.7131  140.6449  165.7778 O.3     1  UNL1       -0.4776
      2 C         140.9938  140.0017  168.9612 C.ar    1  UNL1       -0.0191
      3 C         139.8169  140.3890  168.1157 C.ar    1  UNL1        0.0342
      4 C         139.8900  140.2576  166.6233 C.ar    1  UNL1        0.1555
      5 C         141.1401  139.7390  165.9763 C.ar    1  UNL1        0.1151
      6 N         141.2131  139.6076  164.4839 N.ar    1  UNL1       -0.2408
      7 C         142.4631  139.0890  163.8370 C.ar    1  UNL1        0.0989
      8 C         143.6401  138.7018  164.6826 C.ar    1  UNL1        0.0207
      9 C         143.5670  138.8331  166.1750 C.ar    1  UNL1        0.0032
     10 C         142.3170  139.3517  166.8219 C.ar    1  UNL1        0.0204
     11 C         142.2438  139.4831  168.3144 C.ar    1  UNL1       -0.0026
     12 C         140.9207  140.1331  170.4537 C.3     1  UNL1        0.0265
     13 C         140.7343  141.4835  171.0795 C.3     1  UNL1        0.0047
     14 C         140.5258  143.7189  169.7721 C.3     1  UNL1        0.0000
     15 C         141.3738  142.6913  170.4613 C.3     1  UNL1        0.0003
     16 C         138.7685  141.8873  164.9392 C.3     1  UNL1        0.1688
     17 C         139.6217  143.0441  165.3679 C.3     1  UNL1        0.0609
     18 C         139.6771  144.2866  164.5293 C.3     1  UNL1        0.0758
     19 N         138.8793  144.3722  163.2620 N.3     1  UNL1       -0.2724
     20 C         138.0261  143.2154  162.8332 C.3     1  UNL1        0.0758
     21 C         137.9707  141.9729  163.6718 C.3     1  UNL1        0.0609
     22 C         138.9347  145.6146  162.4234 C.3     1  UNL1        0.0738
     23 C         140.1900  145.9619  161.6793 C.3     1  UNL1        0.0409
     24 C         140.8599  144.9333  160.8173 C.3     1  UNL1        0.1306
     25 C         141.8209  143.9556  161.4259 C.3     1  UNL1        0.0253
     26 S         140.5687  144.8823  159.3467 S.O2    1  UNL1       -0.0116
     27 O         139.3949  143.9863  159.6102 O.2     1  UNL1       -0.1730
     28 O         141.7425  145.7783  159.0833 O.2     1  UNL1       -0.1730
     29 C         140.2775  144.8313  157.8761 C.3     1  UNL1        0.1508
     30 C         140.0941  146.1037  157.1034 C.3     1  UNL1        0.0271
@<TRIPOS>BOND
     1    14    15    1
     2    15    13    1
     3    13    12    1
     4    12     2    1
     5     2     3   ar
     6     3     4   ar
     7     4     1    1
     8     1    16    1
     9    16    17    1
    10    17    18    1
    11    18    19    1
    12    19    22    1
    13    22    23    1
    14    23    24    1
    15    24    25    1
    16    24    26    1
    17    26    27    2
    18    26    28    2
    19    26    29    1
    20    29    30    1
    21    19    20    1
    22    20    21    1
    23     4     5   ar
    24     5     6   ar
    25     6     7   ar
    26     7     8   ar
    27     8     9   ar
    28     9    10   ar
    29    10    11   ar
    30    11     2   ar
    31    21    16    1
    32    10     5   ar
@<TRIPOS>MOLECULE
*****
 30 32 0 0 0
SMALL
GASTEIGER

@<TRIPOS>ATOM
      1 O         143.3971  139.4677  166.1974 O.3     1  UNL1       -0.4776
      2 C         139.4364  139.5915  166.4157 C.ar    1  UNL1       -0.0191
      3 C         140.8213  139.4449  165.8585 C.ar    1  UNL1        0.0342
      4 C         142.0121  139.6143  166.7546 C.ar    1  UNL1        0.1555
      5 C         141.8181  139.9302  168.2082 C.ar    1  UNL1        0.1151
      6 N         143.0089  140.0995  169.1043 N.ar    1  UNL1       -0.2408
      7 C         142.8148  140.4154  170.5578 C.ar    1  UNL1        0.0989
      8 C         141.4299  140.5619  171.1150 C.ar    1  UNL1        0.0207
      9 C         140.2391  140.3926  170.2188 C.ar    1  UNL1        0.0032
     10 C         140.4332  140.0767  168.7654 C.ar    1  UNL1        0.0204
     11 C         139.2423  139.9073  167.8691 C.ar    1  UNL1       -0.0026
     12 C         138.2455  139.4221  165.5194 C.3     1  UNL1        0.0265
     13 C         137.9801  140.4172  164.4288 C.3     1  UNL1        0.0047
     14 C         137.7951  142.8844  163.6362 C.3     1  UNL1        0.0000
     15 C         138.1666  141.8826  164.6890 C.3     1  UNL1        0.0003
     16 C         143.7808  140.1927  164.9415 C.3     1  UNL1        0.1688
     17 C         143.9701  141.6806  164.9624 C.3     1  UNL1        0.0609
     18 C         144.3538  142.4055  163.7066 C.3     1  UNL1        0.0758
     19 N         144.5482  141.6426  162.4298 N.3     1  UNL1       -0.2724
     20 C         144.3589  140.1547  162.4089 C.3     1  UNL1        0.0758
     21 C         143.9752  139.4297  163.6648 C.3     1  UNL1        0.0609
     22 C         144.9319  142.3675  161.1739 C.3     1  UNL1        0.0738
     23 C         143.8688  142.8540  160.2341 C.3     1  UNL1        0.0409
     24 C         142.4215  142.6303  160.5584 C.3     1  UNL1        0.1306
     25 C         141.7173  141.4103  160.0430 C.3     1  UNL1        0.0253
     26 S         141.6783  143.6266  161.3982 S.O2    1  UNL1       -0.0116
     27 O         142.1910  144.7389  160.5322 O.2     1  UNL1       -0.1730
     28 O         141.1657  142.5143  162.2642 O.2     1  UNL1       -0.1730
     29 C         140.9352  144.6229  162.2379 C.3     1  UNL1        0.1508
     30 C         141.6046  145.2519  163.4237 C.3     1  UNL1        0.0271
@<TRIPOS>BOND
     1    14    15    1
     2    15    13    1
     3    13    12    1
     4    12     2    1
     5     2     3   ar
     6     3     4   ar
     7     4     1    1
     8     1    16    1
     9    16    17    1
    10    17    18    1
    11    18    19    1
    12    19    22    1
    13    22    23    1
    14    23    24    1
    15    24    25    1
    16    24    26    1
    17    26    27    2
    18    26    28    2
    19    26    29    1
    20    29    30    1
    21    19    20    1
    22    20    21    1
    23     4     5   ar
    24     5     6   ar
    25     6     7   ar
    26     7     8   ar
    27     8     9   ar
    28     9    10   ar
    29    10    11   ar
    30    11     2   ar
    31    21    16    1
    32    10     5   ar
@<TRIPOS>MOLECULE
*****
 30 32 0 0 0
SMALL
GASTEIGER

@<TRIPOS>ATOM
      1 O         142.5073  138.3038  165.6266 O.3     1  UNL1       -0.4776
      2 C         142.7767  140.7892  168.7088 C.ar    1  UNL1       -0.0191
      3 C         142.5332  139.5433  167.9098 C.ar    1  UNL1        0.0342
      4 C         142.7507  139.5497  166.4257 C.ar    1  UNL1        0.1555
      5 C         143.2118  140.8020  165.7406 C.ar    1  UNL1        0.1151
      6 N         143.4293  140.8083  164.2565 N.ar    1  UNL1       -0.2408
      7 C         143.8903  142.0606  163.5714 C.ar    1  UNL1        0.0989
      8 C         144.1337  143.3065  164.3705 C.ar    1  UNL1        0.0207
      9 C         143.9162  143.3001  165.8546 C.ar    1  UNL1        0.0032
     10 C         143.4552  142.0478  166.5396 C.ar    1  UNL1        0.0204
     11 C         143.2377  142.0414  168.0238 C.ar    1  UNL1       -0.0026
     12 C         142.5592  140.7827  170.1930 C.3     1  UNL1        0.0265
     13 C         141.9117  141.9593  170.8612 C.3     1  UNL1        0.0047
     14 C         140.4076  143.6942  169.6455 C.3     1  UNL1        0.0000
     15 C         140.5534  142.4182  170.4206 C.3     1  UNL1        0.0003
     16 C         141.3704  138.2496  164.6496 C.3     1  UNL1        0.1688
     17 C         141.6099  137.7792  163.2455 C.3     1  UNL1        0.0609
     18 C         140.4731  137.7250  162.2685 C.3     1  UNL1        0.0758
     19 N         139.0967  138.1412  162.6955 N.3     1  UNL1       -0.2724
     20 C         138.8571  138.6116  164.0995 C.3     1  UNL1        0.0758
     21 C         139.9940  138.6658  165.0766 C.3     1  UNL1        0.0609
     22 C         137.9598  138.0870  161.7185 C.3     1  UNL1        0.0738
     23 C         137.3637  139.3581  161.1901 C.3     1  UNL1        0.0409
     24 C         138.2524  140.5152  160.8418 C.3     1  UNL1        0.1306
     25 C         138.8561  140.6114  159.4721 C.3     1  UNL1        0.0253
     26 S         138.5374  141.5761  161.8633 S.O2    1  UNL1       -0.0116
     27 O         137.1272  141.4728  162.3640 O.2     1  UNL1       -0.1730
     28 O         139.9476  141.6794  161.3626 O.2     1  UNL1       -0.1730
     29 C         138.8223  142.6370  162.8847 C.3     1  UNL1        0.1508
     30 C         140.1761  142.7166  163.5257 C.3     1  UNL1        0.0271
@<TRIPOS>BOND
     1    14    15    1
     2    15    13    1
     3    13    12    1
     4    12     2    1
     5     2     3   ar
     6     3     4   ar
     7     4     1    1
     8     1    16    1
     9    16    17    1
    10    17    18    1
    11    18    19    1
    12    19    22    1
    13    22    23    1
    14    23    24    1
    15    24    25    1
    16    24    26    1
    17    26    27    2
    18    26    28    2
    19    26    29    1
    20    29    30    1
    21    19    20    1
    22    20    21    1
    23     4     5   ar
    24     5     6   ar
    25     6     7   ar
    26     7     8   ar
    27     8     9   ar
    28     9    10   ar
    29    10    11   ar
    30    11     2   ar
    31    21    16    1
    32    10     5   ar
@<TRIPOS>MOLECULE
*****
 30 32 0 0 0
SMALL
GASTEIGER

@<TRIPOS>ATOM
      1 O         139.2752  142.2149  166.1050 O.3     1  UNL1       -0.4776
      2 C         141.9624  139.2947  166.0740 C.ar    1  UNL1       -0.0191
      3 C         140.8107  140.1654  165.6673 C.ar    1  UNL1        0.0342
      4 C         140.4269  141.3442  166.5117 C.ar    1  UNL1        0.1555
      5 C         141.1947  141.6523  167.7630 C.ar    1  UNL1        0.1151
      6 N         140.8109  142.8310  168.6074 N.ar    1  UNL1       -0.2408
      7 C         141.5787  143.1390  169.8586 C.ar    1  UNL1        0.0989
      8 C         142.7304  142.2683  170.2653 C.ar    1  UNL1        0.0207
      9 C         143.1143  141.0895  169.4208 C.ar    1  UNL1        0.0032
     10 C         142.3464  140.7815  168.1697 C.ar    1  UNL1        0.0204
     11 C         142.7302  139.6027  167.3251 C.ar    1  UNL1       -0.0026
     12 C         142.3462  138.1159  165.2294 C.3     1  UNL1        0.0265
     13 C         141.2849  137.2080  164.6823 C.3     1  UNL1        0.0047
     14 C         139.5368  137.7355  162.8341 C.3     1  UNL1        0.0000
     15 C         140.9100  137.2813  163.2318 C.3     1  UNL1        0.0003
     16 C         139.4277  143.1753  164.9629 C.3     1  UNL1        0.1688
     17 C         138.2780  143.4217  164.0314 C.3     1  UNL1        0.0609
     18 C         138.4306  144.3820  162.8894 C.3     1  UNL1        0.0758
     19 N         139.7328  145.0960  162.6786 N.3     1  UNL1       -0.2724
     20 C         140.8825  144.8496  163.6100 C.3     1  UNL1        0.0758
     21 C         140.7300  143.8892  164.7522 C.3     1  UNL1        0.0609
     22 C         139.8854  146.0563  161.5365 C.3     1  UNL1        0.0738
     23 C         140.3052  145.5554  160.1864 C.3     1  UNL1        0.0409
     24 C         140.4630  144.0828  159.9485 C.3     1  UNL1        0.1306
     25 C         139.3624  143.3080  159.2865 C.3     1  UNL1        0.0253
     26 S         141.7213  143.3851  160.3725 S.O2    1  UNL1       -0.0116
     27 O         142.5376  144.4751  159.7436 O.2     1  UNL1       -0.1730
     28 O         140.9050  142.2951  161.0015 O.2     1  UNL1       -0.1730
     29 C         142.9796  142.6874  160.7966 C.3     1  UNL1        0.1508
     30 C         143.9252  143.3587  161.7480 C.3     1  UNL1        0.0271
@<TRIPOS>BOND
     1    14    15    1
     2    15    13    1
     3    13    12    1
     4    12     2    1
     5     2     3   ar
     6     3     4   ar
     7     4     1    1
     8     1    16    1
     9    16    17    1
    10    17    18    1
    11    18    19    1
    12    19    22    1
    13    22    23    1
    14    23    24    1
    15    24    25    1
    16    24    26    1
    17    26    27    2
    18    26    28    2
    19    26    29    1
    20    29    30    1
    21    19    20    1
    22    20    21    1
    23     4     5   ar
    24     5     6   ar
    25     6     7   ar
    26     7     8   ar
    27     8     9   ar
    28     9    10   ar
    29    10    11   ar
    30    11     2   ar
    31    21    16    1
    32    10     5   ar
@<TRIPOS>MOLECULE
*****
 30 32 0 0 0
SMALL
GASTEIGER

@<TRIPOS>ATOM
      1 O         142.0699  138.6815  166.1234 O.3     1  UNL1       -0.4776
      2 C         143.7585  142.2573  165.7876 C.ar    1  UNL1       -0.0191
      3 C         143.2404  140.8954  165.4314 C.ar    1  UNL1        0.0342
      4 C         142.5881  140.0434  166.4796 C.ar    1  UNL1        0.1555
      5 C         142.4540  140.5532  167.8839 C.ar    1  UNL1        0.1151
      6 N         141.8018  139.7012  168.9320 N.ar    1  UNL1       -0.2408
      7 C         141.6677  140.2110  170.3363 C.ar    1  UNL1        0.0989
      8 C         142.1859  141.5729  170.6925 C.ar    1  UNL1        0.0207
      9 C         142.8381  142.4249  169.6444 C.ar    1  UNL1        0.0032
     10 C         142.9722  141.9151  168.2401 C.ar    1  UNL1        0.0204
     11 C         143.6245  142.7671  167.1919 C.ar    1  UNL1       -0.0026
     12 C         144.4108  143.1093  164.7394 C.3     1  UNL1        0.0265
     13 C         143.7976  144.4222  164.3517 C.3     1  UNL1        0.0047
     14 C         141.8299  144.8330  162.7058 C.3     1  UNL1        0.0000
     15 C         142.3243  144.5122  164.0851 C.3     1  UNL1        0.0003
     16 C         141.0595  138.5270  165.0256 C.3     1  UNL1        0.1688
     17 C         141.4898  138.0412  163.6732 C.3     1  UNL1        0.0609
     18 C         140.4794  137.8867  162.5754 C.3     1  UNL1        0.0758
     19 N         139.0388  138.2179  162.8299 N.3     1  UNL1       -0.2724
     20 C         138.6085  138.7037  164.1823 C.3     1  UNL1        0.0758
     21 C         139.6189  138.8582  165.2801 C.3     1  UNL1        0.0609
     22 C         138.0284  138.0634  161.7321 C.3     1  UNL1        0.0738
     23 C         137.3370  139.2718  161.1735 C.3     1  UNL1        0.0409
     24 C         138.1394  140.4667  160.7513 C.3     1  UNL1        0.1306
     25 C         138.6245  140.5826  159.3367 C.3     1  UNL1        0.0253
     26 S         138.4567  141.5458  161.7438 S.O2    1  UNL1       -0.0116
     27 O         139.8478  141.6446  161.1916 O.2     1  UNL1       -0.1730
     28 O         137.0655  141.4469  162.2960 O.2     1  UNL1       -0.1730
     29 C         138.7739  142.6249  162.7362 C.3     1  UNL1        0.1508
     30 C         137.9131  143.8509  162.8119 C.3     1  UNL1        0.0271
@<TRIPOS>BOND
     1    14    15    1
     2    15    13    1
     3    13    12    1
     4    12     2    1
     5     2     3   ar
     6     3     4   ar
     7     4     1    1
     8     1    16    1
     9    16    17    1
    10    17    18    1
    11    18    19    1
    12    19    22    1
    13    22    23    1
    14    23    24    1
    15    24    25    1
    16    24    26    1
    17    26    27    2
    18    26    28    2
    19    26    29    1
    20    29    30    1
    21    19    20    1
    22    20    21    1
    23     4     5   ar
    24     5     6   ar
    25     6     7   ar
    26     7     8   ar
    27     8     9   ar
    28     9    10   ar
    29    10    11   ar
    30    11     2   ar
    31    21    16    1
    32    10     5   ar
@<TRIPOS>MOLECULE
*****
 30 32 0 0 0
SMALL
GASTEIGER

@<TRIPOS>ATOM
      1 O         143.5329  139.0069  165.8766 O.3     1  UNL1       -0.4776
      2 C         141.6324  140.1602  169.1641 C.ar    1  UNL1       -0.0191
      3 C         142.7410  139.7920  168.2232 C.ar    1  UNL1        0.0342
      4 C         142.4243  139.3751  166.8175 C.ar    1  UNL1        0.1555
      5 C         140.9989  139.3262  166.3528 C.ar    1  UNL1        0.1151
      6 N         140.6822  138.9093  164.9472 N.ar    1  UNL1       -0.2408
      7 C         139.2568  138.8604  164.4826 C.ar    1  UNL1        0.0989
      8 C         138.1482  139.2286  165.4236 C.ar    1  UNL1        0.0207
      9 C         138.4649  139.6455  166.8292 C.ar    1  UNL1        0.0032
     10 C         139.8903  139.6944  167.2938 C.ar    1  UNL1        0.0204
     11 C         140.2071  140.1114  168.6995 C.ar    1  UNL1       -0.0026
     12 C         141.9492  140.5772  170.5698 C.3     1  UNL1        0.0265
     13 C         141.8485  142.0208  170.9646 C.3     1  UNL1        0.0047
     14 C         140.4360  143.7890  169.6887 C.3     1  UNL1        0.0000
     15 C         141.7399  143.0811  169.9092 C.3     1  UNL1        0.0003
     16 C         143.8416  139.8857  164.7009 C.3     1  UNL1        0.1688
     17 C         144.0516  139.2787  163.3453 C.3     1  UNL1        0.0609
     18 C         144.3603  140.1575  162.1696 C.3     1  UNL1        0.0758
     19 N         144.4591  141.6434  162.3494 N.3     1  UNL1       -0.2724
     20 C         144.2491  142.2505  163.7048 C.3     1  UNL1        0.0758
     21 C         143.9404  141.3717  164.8806 C.3     1  UNL1        0.0609
     22 C         144.7678  142.5222  161.1737 C.3     1  UNL1        0.0738
     23 C         143.6601  142.9952  160.2795 C.3     1  UNL1        0.0409
     24 C         142.2308  142.7472  160.6607 C.3     1  UNL1        0.1306
     25 C         141.5399  141.4954  160.2071 C.3     1  UNL1        0.0253
     26 S         141.4922  143.7509  161.4955 S.O2    1  UNL1       -0.0116
     27 O         141.9827  144.8532  160.6042 O.2     1  UNL1       -0.1730
     28 O         141.0018  142.6487  162.3869 O.2     1  UNL1       -0.1730
     29 C         140.7537  144.7547  162.3304 C.3     1  UNL1        0.1508
     30 C         140.0974  145.9353  161.6780 C.3     1  UNL1        0.0271
@<TRIPOS>BOND
     1    14    15    1
     2    15    13    1
     3    13    12    1
     4    12     2    1
     5     2     3   ar
     6     3     4   ar
     7     4     1    1
     8     1    16    1
     9    16    17    1
    10    17    18    1
    11    18    19    1
    12    19    22    1
    13    22    23    1
    14    23    24    1
    15    24    25    1
    16    24    26    1
    17    26    27    2
    18    26    28    2
    19    26    29    1
    20    29    30    1
    21    19    20    1
    22    20    21    1
    23     4     5   ar
    24     5     6   ar
    25     6     7   ar
    26     7     8   ar
    27     8     9   ar
    28     9    10   ar
    29    10    11   ar
    30    11     2   ar
    31    21    16    1
    32    10     5   ar
@<TRIPOS>MOLECULE
*****
 30 32 0 0 0
SMALL
GASTEIGER

@<TRIPOS>ATOM
      1 O         142.9536  141.1443  166.1019 O.3     1  UNL1       -0.4776
      2 C         139.4144  139.5383  166.9048 C.ar    1  UNL1       -0.0191
      3 C         140.6503  139.9436  166.1577 C.ar    1  UNL1        0.0342
      4 C         141.7177  140.7389  166.8491 C.ar    1  UNL1        0.1555
      5 C         141.5493  141.1289  168.2877 C.ar    1  UNL1        0.1151
      6 N         142.6167  141.9241  168.9791 N.ar    1  UNL1       -0.2408
      7 C         142.4483  142.3140  170.4177 C.ar    1  UNL1        0.0989
      8 C         141.2124  141.9087  171.1649 C.ar    1  UNL1        0.0207
      9 C         140.1450  141.1134  170.4735 C.ar    1  UNL1        0.0032
     10 C         140.3134  140.7235  169.0349 C.ar    1  UNL1        0.0204
     11 C         139.2459  139.9282  168.3434 C.ar    1  UNL1       -0.0026
     12 C         138.3469  138.7429  166.2134 C.3     1  UNL1        0.0265
     13 C         138.7227  137.5786  165.3456 C.3     1  UNL1        0.0047
     14 C         138.5192  139.0797  163.2349 C.3     1  UNL1        0.0000
     15 C         138.8660  137.7629  163.8639 C.3     1  UNL1        0.0003
     16 C         142.8354  141.8603  164.7892 C.3     1  UNL1        0.1688
     17 C         142.8266  143.3599  164.7509 C.3     1  UNL1        0.0609
     18 C         142.7084  144.0759  163.4382 C.3     1  UNL1        0.0758
     19 N         142.5990  143.2926  162.1637 N.3     1  UNL1       -0.2724
     20 C         142.6077  141.7931  162.2019 C.3     1  UNL1        0.0758
     21 C         142.7259  141.0770  163.5147 C.3     1  UNL1        0.0609
     22 C         142.4807  144.0086  160.8510 C.3     1  UNL1        0.0738
     23 C         141.1864  144.6624  160.4672 C.3     1  UNL1        0.0409
     24 C         139.8833  143.9957  160.7949 C.3     1  UNL1        0.1306
     25 C         139.2946  142.9932  159.8471 C.3     1  UNL1        0.0253
     26 S         139.1689  144.3316  162.0703 S.O2    1  UNL1       -0.0116
     27 O         139.2376  142.8925  162.4878 O.2     1  UNL1       -0.1730
     28 O         139.1001  145.7707  161.6529 O.2     1  UNL1       -0.1730
     29 C         138.4544  144.6674  163.3458 C.3     1  UNL1        0.1508
     30 C         139.2020  144.6688  164.6462 C.3     1  UNL1        0.0271
@<TRIPOS>BOND
     1    14    15    1
     2    15    13    1
     3    13    12    1
     4    12     2    1
     5     2     3   ar
     6     3     4   ar
     7     4     1    1
     8     1    16    1
     9    16    17    1
    10    17    18    1
    11    18    19    1
    12    19    22    1
    13    22    23    1
    14    23    24    1
    15    24    25    1
    16    24    26    1
    17    26    27    2
    18    26    28    2
    19    26    29    1
    20    29    30    1
    21    19    20    1
    22    20    21    1
    23     4     5   ar
    24     5     6   ar
    25     6     7   ar
    26     7     8   ar
    27     8     9   ar
    28     9    10   ar
    29    10    11   ar
    30    11     2   ar
    31    21    16    1
    32    10     5   ar
@<TRIPOS>MOLECULE
*****
 30 32 0 0 0
SMALL
GASTEIGER

@<TRIPOS>ATOM
      1 O         139.7101  139.1153  166.2789 O.3     1  UNL1       -0.4776
      2 C         142.8809  141.5013  166.2251 C.ar    1  UNL1       -0.0191
      3 C         141.7837  140.5914  165.7580 C.ar    1  UNL1        0.0342
      4 C         140.8073  140.0253  166.7460 C.ar    1  UNL1        0.1555
      5 C         140.9280  140.3691  168.2011 C.ar    1  UNL1        0.1151
      6 N         139.9516  139.8029  169.1890 N.ar    1  UNL1       -0.2408
      7 C         140.0724  140.1468  170.6440 C.ar    1  UNL1        0.0989
      8 C         141.1696  141.0567  171.1111 C.ar    1  UNL1        0.0207
      9 C         142.1460  141.6228  170.1232 C.ar    1  UNL1        0.0032
     10 C         142.0252  141.2790  168.6682 C.ar    1  UNL1        0.0204
     11 C         143.0017  141.8451  167.6802 C.ar    1  UNL1       -0.0026
     12 C         143.8574  142.0674  165.2371 C.3     1  UNL1        0.0265
     13 C         143.8090  143.5249  164.8857 C.3     1  UNL1        0.0047
     14 C         142.2079  145.2709  163.8189 C.3     1  UNL1        0.0000
     15 C         142.9814  143.9892  163.7241 C.3     1  UNL1        0.0003
     16 C         139.1381  139.2757  164.9015 C.3     1  UNL1        0.1688
     17 C         138.2296  140.4297  164.5963 C.3     1  UNL1        0.0609
     18 C         137.6577  140.5900  163.2190 C.3     1  UNL1        0.0758
     19 N         137.9941  139.5965  162.1468 N.3     1  UNL1       -0.2724
     20 C         138.9026  138.4426  162.4519 C.3     1  UNL1        0.0758
     21 C         139.4746  138.2821  163.8293 C.3     1  UNL1        0.0609
     22 C         137.4222  139.7568  160.7695 C.3     1  UNL1        0.0738
     23 C         138.1548  140.5690  159.7430 C.3     1  UNL1        0.0409
     24 C         139.4568  141.2251  160.0954 C.3     1  UNL1        0.1306
     25 C         140.7510  140.5162  159.8260 C.3     1  UNL1        0.0253
     26 S         139.4647  142.5902  160.7172 S.O2    1  UNL1       -0.0116
     27 O         138.4798  143.0638  159.6898 O.2     1  UNL1       -0.1730
     28 O         140.4496  142.1165  161.7446 O.2     1  UNL1       -0.1730
     29 C         139.4726  143.9552  161.3390 C.3     1  UNL1        0.1508
     30 C         138.8438  144.1704  162.6837 C.3     1  UNL1        0.0271
@<TRIPOS>BOND
     1    14    15    1
     2    15    13    1
     3    13    12    1
     4    12     2    1
     5     2     3   ar
     6     3     4   ar
     7     4     1    1
     8     1    16    1
     9    16    17    1
    10    17    18    1
    11    18    19    1
    12    19    22    1
    13    22    23    1
    14    23    24    1
    15    24    25    1
    16    24    26    1
    17    26    27    2
    18    26    28    2
    19    26    29    1
    20    29    30    1
    21    19    20    1
    22    20    21    1
    23     4     5   ar
    24     5     6   ar
    25     6     7   ar
    26     7     8   ar
    27     8     9   ar
    28     9    10   ar
    29    10    11   ar
    30    11     2   ar
    31    21    16    1
    32    10     5   ar
