@<TRIPOS>MOLECULE
*****
 31 35 0 0 0
SMALL
GASTEIGER

@<TRIPOS>ATOM
      1 O         143.9678  138.1363  161.9044 O.2     1  UNL1       -0.2729
      2 C         142.6013  138.7368  162.0535 C.2     1  UNL1        0.2474
      3 N         142.1059  139.7327  161.0471 N.am    1  UNL1       -0.2665
      4 H         141.2090  140.1268  161.1449 H       1  UNL1        0.1564
      5 C         142.9769  140.1280  159.8917 C.ar    1  UNL1        0.1560
      6 C         143.5330  141.5190  159.8132 C.ar    1  UNL1        0.0379
      7 C         144.4040  141.9144  158.6578 C.ar    1  UNL1        0.0239
      8 C         144.7189  140.9188  157.5808 C.ar    1  UNL1        0.1045
      9 N         144.1628  139.5279  157.6593 N.ar    1  UNL1       -0.1467
     10 N         143.2918  139.1326  158.8148 N.ar    1  UNL1       -0.1328
     11 C         145.5899  141.3142  156.4254 C.ar    1  UNL1        0.0386
     12 C         146.6640  142.3441  156.6139 C.ar    1  UNL1        0.0047
     13 C         147.5351  142.7395  155.4585 C.ar    1  UNL1        0.0207
     14 C         147.3319  142.1049  154.1145 C.ar    1  UNL1        0.0989
     15 N         146.2578  141.0750  153.9261 N.ar    1  UNL1       -0.2423
     16 C         145.3868  140.6796  155.0815 C.ar    1  UNL1        0.1004
     17 C         141.7303  138.3414  163.2089 C.3     1  UNL1        0.1775
     18 N         142.0055  138.8898  164.5777 N.pl3   1  UNL1       -0.2964
     19 C         142.9411  138.1672  165.5010 C.3     1  UNL1        0.0917
     20 C         143.2163  138.7156  166.8697 C.3     1  UNL1        0.0263
     21 C         142.5559  139.9866  167.3152 C.3     1  UNL1        0.0342
     22 C         141.6204  140.7093  166.3919 C.2     1  UNL1        0.0496
     23 C         141.3452  140.1609  165.0232 C.2     1  UNL1        0.1032
     24 C         140.3838  141.0861  164.3377 C.2     1  UNL1        0.2682
     25 O         139.8373  140.9202  162.9507 O.2     1  UNL1       -0.2681
     26 N         140.0649  142.2063  165.2829 N.am    1  UNL1       -0.2238
     27 C         140.8291  141.9734  166.5524 C.2     1  UNL1        0.2523
     28 O         140.8062  142.8506  167.7690 O.2     1  UNL1       -0.2698
     29 C         139.1435  143.3574  165.0071 C.3     1  UNL1        0.0831
     30 C         137.7966  143.8734  164.5952 C.3     1  UNL1        0.0220
     31 C         138.8945  144.8352  164.9411 C.3     1  UNL1        0.0220
@<TRIPOS>BOND
     1     1     2    2
     2     2    17    1
     3    17    18    1
     4    18    19    1
     5    19    20    1
     6    20    21    1
     7    21    22    1
     8    22    23    2
     9    23    24    1
    10    24    25    2
    11    24    26   am
    12    26    29    1
    13    29    30    1
    14    30    31    1
    15    26    27   am
    16    27    28    2
    17     2     3   am
    18     3     5    1
    19     5     6   ar
    20     6     7   ar
    21     7     8   ar
    22     8    11    1
    23    11    12   ar
    24    12    13   ar
    25    13    14   ar
    26    14    15   ar
    27    15    16   ar
    28     8     9   ar
    29     9    10   ar
    30    23    18    1
    31    31    29    1
    32    10     5   ar
    33    27    22    1
    34    16    11   ar
    35     3     4    1
@<TRIPOS>MOLECULE
*****
 31 35 0 0 0
SMALL
GASTEIGER

@<TRIPOS>ATOM
      1 O         137.8431  138.2354  161.8212 O.2     1  UNL1       -0.2729
      2 C         138.3287  139.6373  162.0431 C.2     1  UNL1        0.2474
      3 N         139.3266  140.2432  161.1013 N.am    1  UNL1       -0.2665
      4 H         139.6453  141.1632  161.2469 H       1  UNL1        0.1564
      5 C         139.8391  139.4473  159.9377 C.ar    1  UNL1        0.1560
      6 C         141.2483  138.9334  159.9430 C.ar    1  UNL1        0.0379
      7 C         141.7608  138.1375  158.7794 C.ar    1  UNL1        0.0239
      8 C         140.8639  137.8556  157.6105 C.ar    1  UNL1        0.1045
      9 N         139.4548  138.3695  157.6052 N.ar    1  UNL1       -0.1467
     10 N         138.9423  139.1653  158.7688 N.ar    1  UNL1       -0.1328
     11 C         141.3764  137.0597  156.4468 C.ar    1  UNL1        0.0386
     12 C         142.8276  136.6870  156.3740 C.ar    1  UNL1        0.0047
     13 C         143.3400  135.8911  155.2104 C.ar    1  UNL1        0.0207
     14 C         142.4012  135.4680  154.1196 C.ar    1  UNL1        0.0989
     15 N         140.9501  135.8407  154.1924 N.ar    1  UNL1       -0.2423
     16 C         140.4377  136.6366  155.3561 C.ar    1  UNL1        0.1004
     17 C         137.8163  140.4331  163.2067 C.3     1  UNL1        0.1775
     18 N         138.5064  140.3478  164.5358 N.pl3   1  UNL1       -0.2964
     19 C         138.0199  139.3793  165.5727 C.3     1  UNL1        0.0917
     20 C         138.7100  139.2940  166.9017 C.3     1  UNL1        0.0263
     21 C         139.8867  140.1772  167.1938 C.3     1  UNL1        0.0342
     22 C         140.3733  141.1457  166.1569 C.2     1  UNL1        0.0496
     23 C         139.6831  141.2310  164.8279 C.2     1  UNL1        0.1032
     24 C         140.3831  142.2741  164.0081 C.2     1  UNL1        0.2682
     25 O         140.0235  142.6856  162.6113 O.2     1  UNL1       -0.2681
     26 N         141.5059  142.8335  164.8306 N.am    1  UNL1       -0.2238
     27 C         141.4998  142.1361  166.1586 C.2     1  UNL1        0.2523
     28 O         142.4529  142.3853  167.2897 O.2     1  UNL1       -0.2698
     29 C         142.4663  143.9026  164.4006 C.3     1  UNL1        0.0831
     30 C         143.8689  144.4240  164.2981 C.3     1  UNL1        0.0220
     31 C         142.7269  145.2329  163.7583 C.3     1  UNL1        0.0220
@<TRIPOS>BOND
     1     1     2    2
     2     2    17    1
     3    17    18    1
     4    18    19    1
     5    19    20    1
     6    20    21    1
     7    21    22    1
     8    22    23    2
     9    23    24    1
    10    24    25    2
    11    24    26   am
    12    26    29    1
    13    29    30    1
    14    30    31    1
    15    26    27   am
    16    27    28    2
    17     2     3   am
    18     3     5    1
    19     5     6   ar
    20     6     7   ar
    21     7     8   ar
    22     8    11    1
    23    11    12   ar
    24    12    13   ar
    25    13    14   ar
    26    14    15   ar
    27    15    16   ar
    28     8     9   ar
    29     9    10   ar
    30    23    18    1
    31    31    29    1
    32    10     5   ar
    33    27    22    1
    34    16    11   ar
    35     3     4    1
@<TRIPOS>MOLECULE
*****
 31 35 0 0 0
SMALL
GASTEIGER

@<TRIPOS>ATOM
      1 O         137.5492  138.0978  161.7430 O.2     1  UNL1       -0.2729
      2 C         139.0026  138.2856  162.0630 C.2     1  UNL1        0.2474
      3 N         139.8704  139.1062  161.1556 N.am    1  UNL1       -0.2665
      4 H         140.8243  139.2294  161.3657 H       1  UNL1        0.1564
      5 C         139.2849  139.7390  159.9282 C.ar    1  UNL1        0.1560
      6 C         138.8704  141.1805  159.9525 C.ar    1  UNL1        0.0379
      7 C         138.2849  141.8133  158.7251 C.ar    1  UNL1        0.0239
      8 C         138.1138  141.0047  157.4733 C.ar    1  UNL1        0.1045
      9 N         138.5282  139.5634  157.4489 N.ar    1  UNL1       -0.1467
     10 N         139.1138  138.9305  158.6764 N.ar    1  UNL1       -0.1328
     11 C         137.5282  141.6376  156.2458 C.ar    1  UNL1        0.0386
     12 C         137.4209  143.1308  156.1504 C.ar    1  UNL1        0.0047
     13 C         136.8353  143.7636  154.9229 C.ar    1  UNL1        0.0207
     14 C         136.3572  142.9033  153.7909 C.ar    1  UNL1        0.0989
     15 N         136.4646  141.4102  153.8864 N.ar    1  UNL1       -0.2423
     16 C         137.0501  140.7774  155.1139 C.ar    1  UNL1        0.1004
     17 C         139.5881  137.6527  163.2905 C.3     1  UNL1        0.1775
     18 N         139.6261  138.4149  164.5819 N.pl3   1  UNL1       -0.2964
     19 C         138.5087  138.2692  165.5719 C.3     1  UNL1        0.0917
     20 C         138.5467  139.0314  166.8632 C.3     1  UNL1        0.0263
     21 C         139.7020  139.9393  167.1646 C.3     1  UNL1        0.0342
     22 C         140.8194  140.0850  166.1746 C.2     1  UNL1        0.0496
     23 C         140.7815  139.3228  164.8832 C.2     1  UNL1        0.1032
     24 C         142.0177  139.6658  164.1060 C.2     1  UNL1        0.2682
     25 O         142.3871  139.1289  162.7549 O.2     1  UNL1       -0.2681
     26 N         142.8197  140.6400  164.9170 N.am    1  UNL1       -0.2238
     27 C         142.0791  140.8991  166.1954 C.2     1  UNL1        0.2523
     28 O         142.5207  141.8119  167.3007 O.2     1  UNL1       -0.2698
     29 C         144.1320  141.2483  164.5194 C.3     1  UNL1        0.0831
     30 C         145.0307  142.4447  164.4153 C.3     1  UNL1        0.0220
     31 C         145.5060  141.1056  163.9348 C.3     1  UNL1        0.0220
@<TRIPOS>BOND
     1     1     2    2
     2     2    17    1
     3    17    18    1
     4    18    19    1
     5    19    20    1
     6    20    21    1
     7    21    22    1
     8    22    23    2
     9    23    24    1
    10    24    25    2
    11    24    26   am
    12    26    29    1
    13    29    30    1
    14    30    31    1
    15    26    27   am
    16    27    28    2
    17     2     3   am
    18     3     5    1
    19     5     6   ar
    20     6     7   ar
    21     7     8   ar
    22     8    11    1
    23    11    12   ar
    24    12    13   ar
    25    13    14   ar
    26    14    15   ar
    27    15    16   ar
    28     8     9   ar
    29     9    10   ar
    30    23    18    1
    31    31    29    1
    32    10     5   ar
    33    27    22    1
    34    16    11   ar
    35     3     4    1
@<TRIPOS>MOLECULE
*****
 31 35 0 0 0
SMALL
GASTEIGER

@<TRIPOS>ATOM
      1 O         140.3539  142.9763  162.8070 O.2     1  UNL1       -0.2729
      2 C         141.4417  141.9945  162.4859 C.2     1  UNL1        0.2474
      3 N         142.0836  142.0032  161.1302 N.am    1  UNL1       -0.2665
      4 H         142.7975  141.3589  160.9195 H       1  UNL1        0.1564
      5 C         141.6378  142.9936  160.0957 C.ar    1  UNL1        0.1560
      6 C         140.6219  142.5965  159.0659 C.ar    1  UNL1        0.0379
      7 C         140.1761  143.5869  158.0313 C.ar    1  UNL1        0.0239
      8 C         140.7462  144.9744  158.0265 C.ar    1  UNL1        0.1045
      9 N         141.7620  145.3714  159.0562 N.ar    1  UNL1       -0.1467
     10 N         142.2078  144.3810  160.0908 N.ar    1  UNL1       -0.1328
     11 C         140.3004  145.9648  156.9919 C.ar    1  UNL1        0.0386
     12 C         140.8592  145.8996  155.6013 C.ar    1  UNL1        0.0047
     13 C         140.4134  146.8900  154.5667 C.ar    1  UNL1        0.0207
     14 C         139.4088  147.9456  154.9227 C.ar    1  UNL1        0.0989
     15 N         138.8501  148.0107  156.3132 N.ar    1  UNL1       -0.2423
     16 C         139.2959  147.0204  157.3478 C.ar    1  UNL1        0.1004
     17 C         141.8875  141.0041  163.5205 C.3     1  UNL1        0.1775
     18 N         140.8777  140.1390  164.2148 N.pl3   1  UNL1       -0.2964
     19 C         140.2451  138.9913  163.4851 C.3     1  UNL1        0.0917
     20 C         139.2354  138.1263  164.1794 C.3     1  UNL1        0.0263
     21 C         138.8583  138.4089  165.6035 C.3     1  UNL1        0.0342
     22 C         139.4909  139.5566  166.3332 C.2     1  UNL1        0.0496
     23 C         140.5006  140.4217  165.6388 C.2     1  UNL1        0.1032
     24 C         140.9529  141.4745  166.6069 C.2     1  UNL1        0.2682
     25 O         141.9588  142.5524  166.3308 O.2     1  UNL1       -0.2681
     26 N         140.2228  141.2601  167.8995 N.am    1  UNL1       -0.2238
     27 C         139.3192  140.0748  167.7303 C.2     1  UNL1        0.2523
     28 O         138.4044  139.5072  168.7749 O.2     1  UNL1       -0.2698
     29 C         140.3703  142.0859  169.1430 C.3     1  UNL1        0.0831
     30 C         140.6464  142.1807  170.6143 C.3     1  UNL1        0.0220
     31 C         140.3496  143.4215  169.8255 C.3     1  UNL1        0.0220
@<TRIPOS>BOND
     1     1     2    2
     2     2    17    1
     3    17    18    1
     4    18    19    1
     5    19    20    1
     6    20    21    1
     7    21    22    1
     8    22    23    2
     9    23    24    1
    10    24    25    2
    11    24    26   am
    12    26    29    1
    13    29    30    1
    14    30    31    1
    15    26    27   am
    16    27    28    2
    17     2     3   am
    18     3     5    1
    19     5     6   ar
    20     6     7   ar
    21     7     8   ar
    22     8    11    1
    23    11    12   ar
    24    12    13   ar
    25    13    14   ar
    26    14    15   ar
    27    15    16   ar
    28     8     9   ar
    29     9    10   ar
    30    23    18    1
    31    31    29    1
    32    10     5   ar
    33    27    22    1
    34    16    11   ar
    35     3     4    1
@<TRIPOS>MOLECULE
*****
 31 35 0 0 0
SMALL
GASTEIGER

@<TRIPOS>ATOM
      1 O         143.9971  144.8845  162.5548 O.2     1  UNL1       -0.2729
      2 C         142.5828  144.4037  162.6918 C.2     1  UNL1        0.2474
      3 N         141.9594  143.5862  161.5996 N.am    1  UNL1       -0.2665
      4 H         141.0312  143.2707  161.6895 H       1  UNL1        0.1564
      5 C         142.7503  143.2495  160.3703 C.ar    1  UNL1        0.1560
      6 C         143.6812  142.0732  160.3763 C.ar    1  UNL1        0.0379
      7 C         144.4721  141.7365  159.1470 C.ar    1  UNL1        0.0239
      8 C         144.3320  142.5759  157.9117 C.ar    1  UNL1        0.1045
      9 N         143.4011  143.7520  157.9058 N.ar    1  UNL1       -0.1467
     10 N         142.6102  144.0888  159.1351 N.ar    1  UNL1       -0.1328
     11 C         145.1229  142.2391  156.6825 C.ar    1  UNL1        0.0386
     12 C         146.6172  142.3699  156.6928 C.ar    1  UNL1        0.0047
     13 C         147.4080  142.0331  155.4635 C.ar    1  UNL1        0.0207
     14 C         146.7046  141.5656  154.2239 C.ar    1  UNL1        0.0989
     15 N         145.2104  141.4348  154.2136 N.ar    1  UNL1       -0.2423
     16 C         144.4195  141.7716  155.4429 C.ar    1  UNL1        0.1004
     17 C         141.7919  144.7405  163.9211 C.3     1  UNL1        0.1775
     18 N         140.4559  144.0988  164.1526 N.pl3   1  UNL1       -0.2964
     19 C         139.2092  144.9325  164.1285 C.3     1  UNL1        0.0917
     20 C         137.8733  144.2908  164.3599 C.3     1  UNL1        0.0263
     21 C         137.7842  142.8154  164.6155 C.3     1  UNL1        0.0342
     22 C         139.0309  141.9817  164.6395 C.2     1  UNL1        0.0496
     23 C         140.3668  142.6234  164.4081 C.2     1  UNL1        0.1032
     24 C         141.4153  141.5538  164.4901 C.2     1  UNL1        0.2682
     25 O         142.8923  141.7522  164.3199 O.2     1  UNL1       -0.2681
     26 N         140.7273  140.2511  164.7722 N.am    1  UNL1       -0.2238
     27 C         139.2537  140.5156  164.8646 C.2     1  UNL1        0.2523
     28 O         138.1897  139.4933  165.1346 O.2     1  UNL1       -0.2698
     29 C         141.3957  138.9179  164.9337 C.3     1  UNL1        0.0831
     30 C         142.5383  138.0909  165.4439 C.3     1  UNL1        0.0220
     31 C         141.4105  137.4358  164.7031 C.3     1  UNL1        0.0220
@<TRIPOS>BOND
     1     1     2    2
     2     2    17    1
     3    17    18    1
     4    18    19    1
     5    19    20    1
     6    20    21    1
     7    21    22    1
     8    22    23    2
     9    23    24    1
    10    24    25    2
    11    24    26   am
    12    26    29    1
    13    29    30    1
    14    30    31    1
    15    26    27   am
    16    27    28    2
    17     2     3   am
    18     3     5    1
    19     5     6   ar
    20     6     7   ar
    21     7     8   ar
    22     8    11    1
    23    11    12   ar
    24    12    13   ar
    25    13    14   ar
    26    14    15   ar
    27    15    16   ar
    28     8     9   ar
    29     9    10   ar
    30    23    18    1
    31    31    29    1
    32    10     5   ar
    33    27    22    1
    34    16    11   ar
    35     3     4    1
@<TRIPOS>MOLECULE
*****
 31 35 0 0 0
SMALL
GASTEIGER

@<TRIPOS>ATOM
      1 O         139.2016  146.4839  161.3532 O.2     1  UNL1       -0.2729
      2 C         139.8495  145.2393  161.8838 C.2     1  UNL1        0.2474
      3 N         140.6641  144.3706  160.9719 N.am    1  UNL1       -0.2665
      4 H         141.0893  143.5538  161.3202 H       1  UNL1        0.1564
      5 C         140.8311  144.7464  159.5294 C.ar    1  UNL1        0.1560
      6 C         139.8572  144.2427  158.5056 C.ar    1  UNL1        0.0379
      7 C         140.0242  144.6184  157.0631 C.ar    1  UNL1        0.0239
      8 C         141.1649  145.4980  156.6443 C.ar    1  UNL1        0.1045
      9 N         142.1386  146.0017  157.6681 N.ar    1  UNL1       -0.1467
     10 N         141.9717  145.6259  159.1106 N.ar    1  UNL1       -0.1328
     11 C         141.3318  145.8738  155.2018 C.ar    1  UNL1        0.0386
     12 C         140.5294  147.0012  154.6227 C.ar    1  UNL1        0.0047
     13 C         140.6963  147.3769  153.1802 C.ar    1  UNL1        0.0207
     14 C         141.6656  146.6253  152.3167 C.ar    1  UNL1        0.0989
     15 N         142.4679  145.4980  152.8957 N.ar    1  UNL1       -0.2423
     16 C         142.3010  145.1222  154.3383 C.ar    1  UNL1        0.1004
     17 C         139.6825  144.8635  163.3264 C.3     1  UNL1        0.1775
     18 N         139.3678  143.4454  163.7004 N.pl3   1  UNL1       -0.2964
     19 C         137.9432  143.0214  163.9019 C.3     1  UNL1        0.0917
     20 C         137.6285  141.6033  164.2759 C.3     1  UNL1        0.0263
     21 C         138.7384  140.6092  164.4484 C.3     1  UNL1        0.0342
     22 C         140.1631  141.0331  164.2469 C.2     1  UNL1        0.0496
     23 C         140.4777  142.4512  163.8729 C.2     1  UNL1        0.1032
     24 C         141.9668  142.5765  163.7413 C.2     1  UNL1        0.2682
     25 O         142.7182  143.8235  163.3804 O.2     1  UNL1       -0.2681
     26 N         142.5723  141.2357  164.0340 N.am    1  UNL1       -0.2238
     27 C         141.4575  140.2819  164.3465 C.2     1  UNL1        0.2523
     28 O         141.6104  138.8315  164.6970 O.2     1  UNL1       -0.2698
     29 C         144.0357  140.9065  164.0173 C.3     1  UNL1        0.0831
     30 C         145.1496  139.9276  164.2429 C.3     1  UNL1        0.0220
     31 C         145.4563  141.3152  163.7626 C.3     1  UNL1        0.0220
@<TRIPOS>BOND
     1     1     2    2
     2     2    17    1
     3    17    18    1
     4    18    19    1
     5    19    20    1
     6    20    21    1
     7    21    22    1
     8    22    23    2
     9    23    24    1
    10    24    25    2
    11    24    26   am
    12    26    29    1
    13    29    30    1
    14    30    31    1
    15    26    27   am
    16    27    28    2
    17     2     3   am
    18     3     5    1
    19     5     6   ar
    20     6     7   ar
    21     7     8   ar
    22     8    11    1
    23    11    12   ar
    24    12    13   ar
    25    13    14   ar
    26    14    15   ar
    27    15    16   ar
    28     8     9   ar
    29     9    10   ar
    30    23    18    1
    31    31    29    1
    32    10     5   ar
    33    27    22    1
    34    16    11   ar
    35     3     4    1
@<TRIPOS>MOLECULE
*****
 31 35 0 0 0
SMALL
GASTEIGER

@<TRIPOS>ATOM
      1 O         141.8176  145.8682  158.4893 O.2     1  UNL1       -0.2729
      2 C         141.1336  144.6624  157.9164 C.2     1  UNL1        0.2474
      3 N         140.1897  144.8140  156.7605 N.am    1  UNL1       -0.2665
      4 H         139.7407  144.0226  156.3846 H       1  UNL1        0.1564
      5 C         139.9298  146.1714  156.1775 C.ar    1  UNL1        0.1560
      6 C         140.5016  146.5347  154.8391 C.ar    1  UNL1        0.0379
      7 C         140.2417  147.8921  154.2560 C.ar    1  UNL1        0.0239
      8 C         139.4101  148.8861  155.0113 C.ar    1  UNL1        0.1045
      9 N         138.8384  148.5228  156.3496 N.ar    1  UNL1       -0.1467
     10 N         139.0983  147.1654  156.9327 N.ar    1  UNL1       -0.1328
     11 C         139.1503  150.2435  154.4283 C.ar    1  UNL1        0.0386
     12 C         139.4357  150.5044  152.9789 C.ar    1  UNL1        0.0047
     13 C         139.1758  151.8618  152.3958 C.ar    1  UNL1        0.0207
     14 C         138.6305  152.9583  153.2621 C.ar    1  UNL1        0.0989
     15 N         138.3452  152.6974  154.7114 N.ar    1  UNL1       -0.2423
     16 C         138.6050  151.3400  155.2945 C.ar    1  UNL1        0.1004
     17 C         141.3934  143.3050  158.4995 C.3     1  UNL1        0.1775
     18 N         142.3015  143.1590  159.6845 N.pl3   1  UNL1       -0.2964
     19 C         143.7414  142.7891  159.4849 C.3     1  UNL1        0.0917
     20 C         144.6494  142.6431  160.6698 C.3     1  UNL1        0.0263
     21 C         144.1176  142.8672  162.0544 C.3     1  UNL1        0.0342
     22 C         142.6777  143.2372  162.2540 C.2     1  UNL1        0.0496
     23 C         141.7697  143.3831  161.0690 C.2     1  UNL1        0.1032
     24 C         140.4064  143.7544  161.5726 C.2     1  UNL1        0.2682
     25 O         139.1910  143.9992  160.7283 O.2     1  UNL1       -0.2681
     26 N         140.4719  143.8380  163.0689 N.am    1  UNL1       -0.2238
     27 C         141.8756  143.5183  163.4899 C.2     1  UNL1        0.2523
     28 O         142.3875  143.4855  164.8995 O.2     1  UNL1       -0.2698
     29 C         139.3335  144.1810  163.9835 C.3     1  UNL1        0.0831
     30 C         138.8311  144.7760  165.2655 C.3     1  UNL1        0.0220
     31 C         137.8642  144.1801  164.2857 C.3     1  UNL1        0.0220
@<TRIPOS>BOND
     1     1     2    2
     2     2    17    1
     3    17    18    1
     4    18    19    1
     5    19    20    1
     6    20    21    1
     7    21    22    1
     8    22    23    2
     9    23    24    1
    10    24    25    2
    11    24    26   am
    12    26    29    1
    13    29    30    1
    14    30    31    1
    15    26    27   am
    16    27    28    2
    17     2     3   am
    18     3     5    1
    19     5     6   ar
    20     6     7   ar
    21     7     8   ar
    22     8    11    1
    23    11    12   ar
    24    12    13   ar
    25    13    14   ar
    26    14    15   ar
    27    15    16   ar
    28     8     9   ar
    29     9    10   ar
    30    23    18    1
    31    31    29    1
    32    10     5   ar
    33    27    22    1
    34    16    11   ar
    35     3     4    1
@<TRIPOS>MOLECULE
*****
 31 35 0 0 0
SMALL
GASTEIGER

@<TRIPOS>ATOM
      1 O         144.4007  138.8451  162.1607 O.2     1  UNL1       -0.2729
      2 C         144.3117  140.3242  161.9271 C.2     1  UNL1        0.2474
      3 N         143.7716  140.8474  160.6292 N.am    1  UNL1       -0.2665
      4 H         143.7132  141.8181  160.4759 H       1  UNL1        0.1564
      5 C         143.3203  139.8915  159.5649 C.ar    1  UNL1        0.1560
      6 C         142.0119  139.1722  159.7087 C.ar    1  UNL1        0.0379
      7 C         141.5607  138.2163  158.6444 C.ar    1  UNL1        0.0239
      8 C         142.4178  137.9798  157.4363 C.ar    1  UNL1        0.1045
      9 N         143.7262  138.6992  157.2926 N.ar    1  UNL1       -0.1467
     10 N         144.1774  139.6550  158.3569 N.ar    1  UNL1       -0.1328
     11 C         141.9666  137.0240  156.3720 C.ar    1  UNL1        0.0386
     12 C         142.4128  135.5924  156.4115 C.ar    1  UNL1        0.0047
     13 C         141.9616  134.6365  155.3472 C.ar    1  UNL1        0.0207
     14 C         141.0641  135.1123  154.2434 C.ar    1  UNL1        0.0989
     15 N         140.6179  136.5438  154.2040 N.ar    1  UNL1       -0.2423
     16 C         141.0691  137.4997  155.2683 C.ar    1  UNL1        0.1004
     17 C         144.7630  141.2801  162.9914 C.3     1  UNL1        0.1775
     18 N         143.9054  142.4555  163.3564 N.pl3   1  UNL1       -0.2964
     19 C         144.2318  143.8175  162.8194 C.3     1  UNL1        0.0917
     20 C         143.3742  144.9928  163.1844 C.3     1  UNL1        0.0263
     21 C         142.1904  144.8060  164.0864 C.3     1  UNL1        0.0342
     22 C         141.8641  143.4441  164.6234 C.2     1  UNL1        0.0496
     23 C         142.7216  142.2688  164.2584 C.2     1  UNL1        0.1032
     24 C         142.1574  141.0551  164.9358 C.2     1  UNL1        0.2682
     25 O         142.7035  139.6610  164.8453 O.2     1  UNL1       -0.2681
     26 N         140.9511  141.4804  165.7194 N.am    1  UNL1       -0.2238
     27 C         140.7699  142.9568  165.5263 C.2     1  UNL1        0.2523
     28 O         139.6849  143.7983  166.1302 O.2     1  UNL1       -0.2698
     29 C         140.0792  140.5862  166.5502 C.3     1  UNL1        0.0831
     30 C         139.5582  140.1608  167.8910 C.3     1  UNL1        0.0220
     31 C         139.0899  139.4629  166.6485 C.3     1  UNL1        0.0220
@<TRIPOS>BOND
     1     1     2    2
     2     2    17    1
     3    17    18    1
     4    18    19    1
     5    19    20    1
     6    20    21    1
     7    21    22    1
     8    22    23    2
     9    23    24    1
    10    24    25    2
    11    24    26   am
    12    26    29    1
    13    29    30    1
    14    30    31    1
    15    26    27   am
    16    27    28    2
    17     2     3   am
    18     3     5    1
    19     5     6   ar
    20     6     7   ar
    21     7     8   ar
    22     8    11    1
    23    11    12   ar
    24    12    13   ar
    25    13    14   ar
    26    14    15   ar
    27    15    16   ar
    28     8     9   ar
    29     9    10   ar
    30    23    18    1
    31    31    29    1
    32    10     5   ar
    33    27    22    1
    34    16    11   ar
    35     3     4    1
@<TRIPOS>MOLECULE
*****
 31 35 0 0 0
SMALL
GASTEIGER

@<TRIPOS>ATOM
      1 O         144.1780  140.0608  158.8352 O.2     1  UNL1       -0.2729
      2 C         144.0611  140.9165  157.6088 C.2     1  UNL1        0.2474
      3 N         143.7368  140.2899  156.2851 N.am    1  UNL1       -0.2665
      4 H         143.6601  140.8515  155.4802 H       1  UNL1        0.1564
      5 C         143.5295  138.8075  156.1878 C.ar    1  UNL1        0.1560
      6 C         142.2162  138.2057  156.5918 C.ar    1  UNL1        0.0379
      7 C         142.0090  136.7233  156.4945 C.ar    1  UNL1        0.0239
      8 C         143.1150  135.8426  155.9932 C.ar    1  UNL1        0.1045
      9 N         144.4282  136.4444  155.5891 N.ar    1  UNL1       -0.1467
     10 N         144.6355  137.9268  155.6865 N.ar    1  UNL1       -0.1328
     11 C         142.9077  134.3602  155.8958 C.ar    1  UNL1        0.0386
     12 C         142.5921  133.7324  154.5705 C.ar    1  UNL1        0.0047
     13 C         142.3848  132.2500  154.4732 C.ar    1  UNL1        0.0207
     14 C         142.4931  131.3954  155.7012 C.ar    1  UNL1        0.0989
     15 N         142.8087  132.0231  157.0264 N.ar    1  UNL1       -0.2423
     16 C         143.0160  133.5056  157.1237 C.ar    1  UNL1        0.1004
     17 C         144.2684  142.3990  157.7061 C.3     1  UNL1        0.1775
     18 N         143.0971  143.3291  157.5918 N.pl3   1  UNL1       -0.2964
     19 C         142.5863  143.7294  156.2395 C.3     1  UNL1        0.0917
     20 C         141.4151  144.6595  156.1253 C.3     1  UNL1        0.0263
     21 C         140.7547  145.1894  157.3635 C.3     1  UNL1        0.0342
     22 C         141.2654  144.7891  158.7158 C.2     1  UNL1        0.0496
     23 C         142.4366  143.8590  158.8300 C.2     1  UNL1        0.1032
     24 C         142.7164  143.6427  160.2878 C.2     1  UNL1        0.2682
     25 O         143.8036  142.7812  160.8585 O.2     1  UNL1       -0.2681
     26 N         141.7181  144.4392  161.0745 N.am    1  UNL1       -0.2238
     27 C         140.8213  145.1477  160.1030 C.2     1  UNL1        0.2523
     28 O         139.6807  146.0554  160.4565 O.2     1  UNL1       -0.2698
     29 C         141.6316  144.5140  162.5702 C.3     1  UNL1        0.0831
     30 C         141.9895  145.1914  163.8598 C.3     1  UNL1        0.0220
     31 C         141.1241  143.9663  163.8711 C.3     1  UNL1        0.0220
@<TRIPOS>BOND
     1     1     2    2
     2     2    17    1
     3    17    18    1
     4    18    19    1
     5    19    20    1
     6    20    21    1
     7    21    22    1
     8    22    23    2
     9    23    24    1
    10    24    25    2
    11    24    26   am
    12    26    29    1
    13    29    30    1
    14    30    31    1
    15    26    27   am
    16    27    28    2
    17     2     3   am
    18     3     5    1
    19     5     6   ar
    20     6     7   ar
    21     7     8   ar
    22     8    11    1
    23    11    12   ar
    24    12    13   ar
    25    13    14   ar
    26    14    15   ar
    27    15    16   ar
    28     8     9   ar
    29     9    10   ar
    30    23    18    1
    31    31    29    1
    32    10     5   ar
    33    27    22    1
    34    16    11   ar
    35     3     4    1
