@<TRIPOS>MOLECULE
*****
 34 37 0 0 0
SMALL
GASTEIGER

@<TRIPOS>ATOM
      1 C         141.6246  144.9014  162.6766 C.3     1  UNL1        0.1166
      2 N         141.2370  145.4865  164.0021 N.3     1  UNL1       -0.3162
      3 C         142.3727  144.0961  161.6557 C.3     1  UNL1        0.0739
      4 C         141.9481  144.1277  160.2175 C.3     1  UNL1        0.2039
      5 N         140.7752  144.9645  159.7999 N.pl3   1  UNL1       -0.1931
      6 C         140.0271  145.7697  160.8207 C.3     1  UNL1        0.2039
      7 C         140.4518  145.7381  162.2590 C.3     1  UNL1        0.0739
      8 H         141.8688  145.1406  164.7243 H       1  UNL1        0.1192
      9 H         140.2805  145.2133  164.2278 H       1  UNL1        0.1192
     10 C         140.3506  144.9960  158.3616 C.2     1  UNL1        0.3205
     11 N         140.8483  146.0836  157.4564 N.2     1  UNL1        0.0097
     12 C         140.4237  146.1151  156.0182 C.2     1  UNL1        0.4717
     13 N         139.5013  145.0591  155.4850 N.2     1  UNL1        0.0158
     14 C         139.0036  143.9716  156.3903 C.2     1  UNL1        0.3714
     15 N         138.0926  142.8043  156.1502 N.2     1  UNL1       -0.0339
     16 C         137.9543  142.0514  157.4401 C.2     1  UNL1        0.2323
     17 C         138.7797  142.7533  158.4774 C.2     1  UNL1        0.0486
     18 C         139.4282  143.9401  157.8286 C.3     1  UNL1        0.2428
     19 N         142.6725  142.7807  163.7510 N.am    1  UNL1       -0.3011
     20 C         142.6628  144.2678  163.5544 C.2     1  UNL1        0.2352
     21 O         143.6911  145.1212  164.2357 O.2     1  UNL1       -0.2737
     22 H         141.9975  142.2207  163.3038 H       1  UNL1        0.1497
     23 C         143.7107  142.1471  164.6289 C.3     1  UNL1        0.0966
     24 C         143.3018  141.4594  165.8976 C.ar    1  UNL1       -0.0044
     25 C         143.0529  139.9802  165.9023 C.ar    1  UNL1       -0.0018
     26 C         142.6439  139.2925  167.1711 C.ar    1  UNL1        0.0111
     27 C         142.4838  140.0840  168.4352 C.ar    1  UNL1        0.0577
     28 CL        142.0749  139.3962  169.7040 Cl      1  UNL1       -0.0822
     29 C         142.7327  141.5632  168.4305 C.ar    1  UNL1        0.0111
     30 C         143.1417  142.2509  167.1617 C.ar    1  UNL1       -0.0018
     31 C         145.1579  142.2012  164.2379 C.3     1  UNL1        0.0562
     32 C         145.5672  141.8796  162.8311 C.3     1  UNL1        0.1443
     33 C         144.2236  139.8386  161.9485 C.3     1  UNL1        0.1741
     34 O         144.5698  141.2963  161.8746 O.3     1  UNL1       -0.3510
@<TRIPOS>BOND
     1    33    34    1
     2    34    32    1
     3    32    31    1
     4    31    23    1
     5    23    19    1
     6    19    20   am
     7    20    21    2
     8    20     1    1
     9     1     2    1
    10     1     3    1
    11     3     4    1
    12     4     5    1
    13     5    10    1
    14    10    11    2
    15    11    12    1
    16    12    13    2
    17    13    14    1
    18    14    15    2
    19    15    16    1
    20    16    17    2
    21    17    18    1
    22     5     6    1
    23     6     7    1
    24    23    24    1
    25    24    25   ar
    26    25    26   ar
    27    26    27   ar
    28    27    28    1
    29    27    29   ar
    30    29    30   ar
    31     7     1    1
    32    30    24   ar
    33    18    10    1
    34    18    14    1
    35    19    22    1
    36     2     8    1
    37     2     9    1
@<TRIPOS>MOLECULE
*****
 34 37 0 0 0
SMALL
GASTEIGER

@<TRIPOS>ATOM
      1 C         140.1339  144.4466  163.3798 C.3     1  UNL1        0.1166
      2 N         139.5285  145.2341  164.5037 N.3     1  UNL1       -0.3162
      3 C         140.8223  143.3304  162.6514 C.3     1  UNL1        0.0739
      4 C         141.0617  143.4341  161.1744 C.3     1  UNL1        0.2039
      5 N         140.6129  144.6539  160.4255 N.pl3   1  UNL1       -0.1931
      6 C         139.9246  145.7700  161.1539 C.3     1  UNL1        0.2039
      7 C         139.6851  145.6663  162.6310 C.3     1  UNL1        0.0739
      8 H         139.6150  144.7075  165.3730 H       1  UNL1        0.1192
      9 H         138.5425  145.4051  164.3065 H       1  UNL1        0.1192
     10 C         140.8524  144.7575  158.9484 C.2     1  UNL1        0.3205
     11 N         141.9239  145.6670  158.4243 N.2     1  UNL1        0.0097
     12 C         142.1634  145.7706  156.9473 C.2     1  UNL1        0.4717
     13 N         141.3313  144.9647  155.9941 N.2     1  UNL1        0.0158
     14 C         140.2598  144.0552  156.5182 C.2     1  UNL1        0.3714
     15 N         139.2887  143.1454  155.8262 N.2     1  UNL1       -0.0339
     16 C         138.4489  142.4794  156.8756 C.2     1  UNL1        0.2323
     17 C         138.9011  142.9777  158.2163 C.2     1  UNL1        0.0486
     18 C         140.0204  143.9516  157.9954 C.3     1  UNL1        0.2428
     19 N         141.1722  142.2502  164.3004 N.am    1  UNL1       -0.3011
     20 C         140.3725  143.5003  164.5189 C.2     1  UNL1        0.2352
     21 O         139.8114  143.8040  165.8764 O.2     1  UNL1       -0.2737
     22 H         141.5405  142.0509  163.4093 H       1  UNL1        0.1497
     23 C         141.4109  141.3038  165.4394 C.3     1  UNL1        0.0966
     24 C         140.3105  140.3962  165.9035 C.ar    1  UNL1       -0.0044
     25 C         139.6874  139.4230  164.9471 C.ar    1  UNL1       -0.0018
     26 C         138.5871  138.5154  165.4112 C.ar    1  UNL1        0.0111
     27 C         138.1098  138.5810  166.8317 C.ar    1  UNL1        0.0577
     28 CL        137.0093  137.6733  167.2958 Cl      1  UNL1       -0.0822
     29 C         138.7328  139.5541  167.7881 C.ar    1  UNL1        0.0111
     30 C         139.8332  140.4618  167.3240 C.ar    1  UNL1       -0.0018
     31 C         142.7499  141.2650  166.1143 C.3     1  UNL1        0.0562
     32 C         143.6009  142.4994  166.1637 C.3     1  UNL1        0.1443
     33 C         144.8675  142.4252  163.8966 C.3     1  UNL1        0.1741
     34 O         144.0255  143.1690  164.8904 O.3     1  UNL1       -0.3510
@<TRIPOS>BOND
     1    33    34    1
     2    34    32    1
     3    32    31    1
     4    31    23    1
     5    23    19    1
     6    19    20   am
     7    20    21    2
     8    20     1    1
     9     1     2    1
    10     1     3    1
    11     3     4    1
    12     4     5    1
    13     5    10    1
    14    10    11    2
    15    11    12    1
    16    12    13    2
    17    13    14    1
    18    14    15    2
    19    15    16    1
    20    16    17    2
    21    17    18    1
    22     5     6    1
    23     6     7    1
    24    23    24    1
    25    24    25   ar
    26    25    26   ar
    27    26    27   ar
    28    27    28    1
    29    27    29   ar
    30    29    30   ar
    31     7     1    1
    32    30    24   ar
    33    18    10    1
    34    18    14    1
    35    19    22    1
    36     2     8    1
    37     2     9    1
@<TRIPOS>MOLECULE
*****
 34 37 0 0 0
SMALL
GASTEIGER

@<TRIPOS>ATOM
      1 C         141.1433  143.5062  163.5961 C.3     1  UNL1        0.1166
      2 N         140.5791  143.9719  164.9055 N.3     1  UNL1       -0.3162
      3 C         141.9157  142.6855  162.6061 C.3     1  UNL1        0.0739
      4 C         141.8927  143.0484  161.1509 C.3     1  UNL1        0.2039
      5 N         141.0973  144.2320  160.6855 N.pl3   1  UNL1       -0.1931
      6 C         140.3248  145.0526  161.6754 C.3     1  UNL1        0.2039
      7 C         140.3479  144.6897  163.1307 C.3     1  UNL1        0.0739
      8 H         140.9052  143.3597  165.6533 H       1  UNL1        0.1192
      9 H         139.5602  143.9463  164.8651 H       1  UNL1        0.1192
     10 C         141.0743  144.5948  159.2303 C.2     1  UNL1        0.3205
     11 N         142.0749  145.5700  158.6846 N.2     1  UNL1        0.0097
     12 C         142.0520  145.9328  157.2294 C.2     1  UNL1        0.4717
     13 N         141.0283  145.3206  156.3197 N.2     1  UNL1        0.0158
     14 C         140.0277  144.3455  156.8654 C.2     1  UNL1        0.3714
     15 N         138.9090  143.5860  156.2159 N.2     1  UNL1       -0.0339
     16 C         138.2407  142.7538  157.2698 C.2     1  UNL1        0.2323
     17 C         138.9462  142.9989  158.5706 C.2     1  UNL1        0.0486
     18 C         140.0506  143.9826  158.3207 C.3     1  UNL1        0.2428
     19 N         141.3933  141.0344  164.3562 N.am    1  UNL1       -0.3011
     20 C         141.7428  142.4844  164.5161 C.2     1  UNL1        0.2352
     21 O         142.6916  142.9124  165.5961 O.2     1  UNL1       -0.2737
     22 H         140.7705  140.7535  163.6473 H       1  UNL1        0.1497
     23 C         141.9927  140.0125  165.2762 C.3     1  UNL1        0.0966
     24 C         141.5770  139.9646  166.7166 C.ar    1  UNL1       -0.0044
     25 C         142.5813  139.6190  167.7760 C.ar    1  UNL1       -0.0018
     26 C         142.1656  139.5711  169.2164 C.ar    1  UNL1        0.0111
     27 C         140.7457  139.8689  169.5975 C.ar    1  UNL1        0.0577
     28 CL        140.3300  139.8210  171.0380 Cl      1  UNL1       -0.0822
     29 C         139.7415  140.2145  168.5383 C.ar    1  UNL1        0.0111
     30 C         140.1571  140.2624  167.0977 C.ar    1  UNL1       -0.0018
     31 C         143.0079  139.0385  164.7557 C.3     1  UNL1        0.0562
     32 C         144.3971  139.5036  164.4337 C.3     1  UNL1        0.1443
     33 C         145.6765  141.6707  163.7881 C.3     1  UNL1        0.1741
     34 O         144.6035  140.6620  163.5033 O.3     1  UNL1       -0.3510
@<TRIPOS>BOND
     1    33    34    1
     2    34    32    1
     3    32    31    1
     4    31    23    1
     5    23    19    1
     6    19    20   am
     7    20    21    2
     8    20     1    1
     9     1     2    1
    10     1     3    1
    11     3     4    1
    12     4     5    1
    13     5    10    1
    14    10    11    2
    15    11    12    1
    16    12    13    2
    17    13    14    1
    18    14    15    2
    19    15    16    1
    20    16    17    2
    21    17    18    1
    22     5     6    1
    23     6     7    1
    24    23    24    1
    25    24    25   ar
    26    25    26   ar
    27    26    27   ar
    28    27    28    1
    29    27    29   ar
    30    29    30   ar
    31     7     1    1
    32    30    24   ar
    33    18    10    1
    34    18    14    1
    35    19    22    1
    36     2     8    1
    37     2     9    1
@<TRIPOS>MOLECULE
*****
 34 37 0 0 0
SMALL
GASTEIGER

@<TRIPOS>ATOM
      1 C         139.9965  142.9299  163.4170 C.3     1  UNL1        0.1166
      2 N         139.5379  143.4210  164.7580 N.3     1  UNL1       -0.3162
      3 C         140.4860  141.9966  162.3495 C.3     1  UNL1        0.0739
      4 C         140.7275  142.5071  160.9600 C.3     1  UNL1        0.2039
      5 N         140.4796  143.9511  160.6378 N.pl3   1  UNL1       -0.1931
      6 C         139.9902  144.8844  161.7052 C.3     1  UNL1        0.2039
      7 C         139.7486  144.3738  163.0948 C.3     1  UNL1        0.0739
      8 H         139.5434  142.6479  165.4233 H       1  UNL1        0.1192
      9 H         138.5919  143.7941  164.6782 H       1  UNL1        0.1192
     10 C         140.7211  144.4616  159.2482 C.2     1  UNL1        0.3205
     11 N         141.8143  145.4569  158.9942 N.2     1  UNL1        0.0097
     12 C         142.0558  145.9674  157.6047 C.2     1  UNL1        0.4717
     13 N         141.2042  145.4827  156.4689 N.2     1  UNL1        0.0158
     14 C         140.1111  144.4874  156.7229 C.2     1  UNL1        0.3714
     15 N         139.1179  143.8326  155.8092 N.2     1  UNL1       -0.0339
     16 C         138.2625  142.9173  156.6342 C.2     1  UNL1        0.2323
     17 C         138.7270  143.0065  158.0577 C.2     1  UNL1        0.0486
     18 C         139.8695  143.9769  158.1125 C.3     1  UNL1        0.2428
     19 N         139.1383  141.4110  165.3421 N.am    1  UNL1       -0.3011
     20 C         140.0851  141.6566  164.2049 C.2     1  UNL1        0.2352
     21 O         141.1204  140.6290  163.8556 O.2     1  UNL1       -0.2737
     22 H         138.4588  142.0855  165.5714 H       1  UNL1        0.1497
     23 C         139.2269  140.1376  166.1300 C.3     1  UNL1        0.0966
     24 C         140.1667  140.0404  167.2951 C.ar    1  UNL1       -0.0044
     25 C         141.6313  139.8169  167.0606 C.ar    1  UNL1       -0.0018
     26 C         142.5711  139.7197  168.2256 C.ar    1  UNL1        0.0111
     27 C         142.0463  139.8459  169.6251 C.ar    1  UNL1        0.0577
     28 CL        142.9862  139.7487  170.7901 Cl      1  UNL1       -0.0822
     29 C         140.5817  140.0693  169.8596 C.ar    1  UNL1        0.0111
     30 C         139.6418  140.1666  168.6946 C.ar    1  UNL1       -0.0018
     31 C         138.3756  138.9616  165.7529 C.3     1  UNL1        0.0562
     32 C         138.9841  137.7962  165.0305 C.3     1  UNL1        0.1443
     33 C         138.2847  138.8049  162.7408 C.3     1  UNL1        0.1741
     34 O         138.7931  137.6488  163.5500 O.3     1  UNL1       -0.3510
@<TRIPOS>BOND
     1    33    34    1
     2    34    32    1
     3    32    31    1
     4    31    23    1
     5    23    19    1
     6    19    20   am
     7    20    21    2
     8    20     1    1
     9     1     2    1
    10     1     3    1
    11     3     4    1
    12     4     5    1
    13     5    10    1
    14    10    11    2
    15    11    12    1
    16    12    13    2
    17    13    14    1
    18    14    15    2
    19    15    16    1
    20    16    17    2
    21    17    18    1
    22     5     6    1
    23     6     7    1
    24    23    24    1
    25    24    25   ar
    26    25    26   ar
    27    26    27   ar
    28    27    28    1
    29    27    29   ar
    30    29    30   ar
    31     7     1    1
    32    30    24   ar
    33    18    10    1
    34    18    14    1
    35    19    22    1
    36     2     8    1
    37     2     9    1
@<TRIPOS>MOLECULE
*****
 34 37 0 0 0
SMALL
GASTEIGER

@<TRIPOS>ATOM
      1 C         142.7086  139.7376  164.1167 C.3     1  UNL1        0.1166
      2 N         143.6752  138.7972  163.4601 N.3     1  UNL1       -0.3162
      3 C         141.7291  140.8610  164.2858 C.3     1  UNL1        0.0739
      4 C         141.1223  141.1309  165.6307 C.3     1  UNL1        0.2039
      5 N         141.4948  140.2773  166.8066 N.pl3   1  UNL1       -0.1931
      6 C         142.4743  139.1539  166.6376 C.3     1  UNL1        0.2039
      7 C         143.0811  138.8840  165.2926 C.3     1  UNL1        0.0739
      8 H         143.7610  139.0333  162.4715 H       1  UNL1        0.1192
      9 H         143.3346  137.8402  163.5527 H       1  UNL1        0.1192
     10 C         140.8879  140.5472  168.1516 C.2     1  UNL1        0.3205
     11 N         139.5751  139.9228  168.5209 N.2     1  UNL1        0.0097
     12 C         138.9682  140.1927  169.8658 C.2     1  UNL1        0.4717
     13 N         139.6741  141.0871  170.8414 N.2     1  UNL1        0.0158
     14 C         140.9870  141.7115  170.4721 C.2     1  UNL1        0.3714
     15 N         141.9080  142.6288  171.2206 N.2     1  UNL1       -0.0339
     16 C         143.0841  142.9258  170.3383 C.2     1  UNL1        0.2323
     17 C         142.8900  142.1921  169.0444 C.2     1  UNL1        0.0486
     18 C         141.5939  141.4416  169.1271 C.3     1  UNL1        0.2428
     19 N         143.9263  140.2982  161.8912 N.am    1  UNL1       -0.3011
     20 C         142.6717  140.2645  162.7128 C.2     1  UNL1        0.2352
     21 O         141.3804  140.7579  162.1305 O.2     1  UNL1       -0.2737
     22 H         144.7738  139.9744  162.2734 H       1  UNL1        0.1497
     23 C         143.8894  140.8252  160.4873 C.3     1  UNL1        0.0966
     24 C         143.5556  139.9062  159.3498 C.ar    1  UNL1       -0.0044
     25 C         143.7794  140.3519  157.9351 C.ar    1  UNL1       -0.0018
     26 C         143.4456  139.4329  156.7976 C.ar    1  UNL1        0.0111
     27 C         142.8879  138.0682  157.0747 C.ar    1  UNL1        0.0577
     28 CL        142.5541  137.1492  155.9371 Cl      1  UNL1       -0.0822
     29 C         142.6641  137.6226  158.4894 C.ar    1  UNL1        0.0111
     30 C         142.9980  138.5416  159.6270 C.ar    1  UNL1       -0.0018
     31 C         144.1865  142.2712  160.2210 C.3     1  UNL1        0.0562
     32 C         143.1298  143.3095  160.4562 C.3     1  UNL1        0.1443
     33 C         144.1724  143.9565  162.7462 C.3     1  UNL1        0.1741
     34 O         143.2713  144.2798  161.5915 O.3     1  UNL1       -0.3510
@<TRIPOS>BOND
     1    33    34    1
     2    34    32    1
     3    32    31    1
     4    31    23    1
     5    23    19    1
     6    19    20   am
     7    20    21    2
     8    20     1    1
     9     1     2    1
    10     1     3    1
    11     3     4    1
    12     4     5    1
    13     5    10    1
    14    10    11    2
    15    11    12    1
    16    12    13    2
    17    13    14    1
    18    14    15    2
    19    15    16    1
    20    16    17    2
    21    17    18    1
    22     5     6    1
    23     6     7    1
    24    23    24    1
    25    24    25   ar
    26    25    26   ar
    27    26    27   ar
    28    27    28    1
    29    27    29   ar
    30    29    30   ar
    31     7     1    1
    32    30    24   ar
    33    18    10    1
    34    18    14    1
    35    19    22    1
    36     2     8    1
    37     2     9    1
@<TRIPOS>MOLECULE
*****
 34 37 0 0 0
SMALL
GASTEIGER

@<TRIPOS>ATOM
      1 C         144.2881  141.0459  162.9372 C.3     1  UNL1        0.1166
      2 N         145.3263  141.1492  164.0149 N.3     1  UNL1       -0.3162
      3 C         143.0618  140.5960  162.1998 C.3     1  UNL1        0.0739
      4 C         142.7378  141.1800  160.8567 C.3     1  UNL1        0.2039
      5 N         143.6402  142.2139  160.2509 N.pl3   1  UNL1       -0.1931
      6 C         144.8665  142.6638  160.9883 C.3     1  UNL1        0.2039
      7 C         145.1905  142.0798  162.3314 C.3     1  UNL1        0.0739
      8 H         145.0915  140.5113  164.7754 H       1  UNL1        0.1192
      9 H         145.3543  142.1052  164.3695 H       1  UNL1        0.1192
     10 C         143.3162  142.7978  158.9078 C.2     1  UNL1        0.3205
     11 N         144.0207  142.2962  157.6822 N.2     1  UNL1        0.0097
     12 C         143.6967  142.8801  156.3391 C.2     1  UNL1        0.4717
     13 N         142.6682  143.9657  156.2215 N.2     1  UNL1        0.0158
     14 C         141.9638  144.4674  157.4471 C.2     1  UNL1        0.3714
     15 N         140.9122  145.5194  157.6404 N.2     1  UNL1       -0.0339
     16 C         140.5862  145.5856  159.1030 C.2     1  UNL1        0.2323
     17 C         141.4364  144.5745  159.8137 C.2     1  UNL1        0.0486
     18 C         142.2878  143.8834  158.7902 C.3     1  UNL1        0.2428
     19 N         142.2732  139.9931  164.1946 N.am    1  UNL1       -0.3011
     20 C         143.7463  140.0479  163.9172 C.2     1  UNL1        0.2352
     21 O         144.6774  139.1049  164.6197 O.2     1  UNL1       -0.2737
     22 H         141.6620  140.6121  163.7335 H       1  UNL1        0.1497
     23 C         141.7312  138.9951  165.1746 C.3     1  UNL1        0.0966
     24 C         141.5258  139.3869  166.6079 C.ar    1  UNL1       -0.0044
     25 C         140.1821  139.8692  167.0684 C.ar    1  UNL1       -0.0018
     26 C         139.9766  140.2609  168.5016 C.ar    1  UNL1        0.0111
     27 C         141.1148  140.1704  169.4744 C.ar    1  UNL1        0.0577
     28 CL        140.9093  140.5621  170.9078 Cl      1  UNL1       -0.0822
     29 C         142.4585  139.6881  169.0140 C.ar    1  UNL1        0.0111
     30 C         142.6640  139.2963  167.5807 C.ar    1  UNL1       -0.0018
     31 C         141.3948  137.6054  164.7213 C.3     1  UNL1        0.0562
     32 C         141.3888  137.2746  163.2582 C.3     1  UNL1        0.1443
     33 C         138.8518  137.8225  163.1441 C.3     1  UNL1        0.1741
     34 O         140.1122  137.3602  162.4752 O.3     1  UNL1       -0.3510
@<TRIPOS>BOND
     1    33    34    1
     2    34    32    1
     3    32    31    1
     4    31    23    1
     5    23    19    1
     6    19    20   am
     7    20    21    2
     8    20     1    1
     9     1     2    1
    10     1     3    1
    11     3     4    1
    12     4     5    1
    13     5    10    1
    14    10    11    2
    15    11    12    1
    16    12    13    2
    17    13    14    1
    18    14    15    2
    19    15    16    1
    20    16    17    2
    21    17    18    1
    22     5     6    1
    23     6     7    1
    24    23    24    1
    25    24    25   ar
    26    25    26   ar
    27    26    27   ar
    28    27    28    1
    29    27    29   ar
    30    29    30   ar
    31     7     1    1
    32    30    24   ar
    33    18    10    1
    34    18    14    1
    35    19    22    1
    36     2     8    1
    37     2     9    1
@<TRIPOS>MOLECULE
*****
 34 37 0 0 0
SMALL
GASTEIGER

@<TRIPOS>ATOM
      1 C         144.2363  141.0377  162.9528 C.3     1  UNL1        0.1166
      2 N         145.4178  140.8867  163.8643 N.3     1  UNL1       -0.3162
      3 C         142.8643  140.8410  162.3791 C.3     1  UNL1        0.0739
      4 C         142.4508  141.5931  161.1489 C.3     1  UNL1        0.2039
      5 N         143.4094  142.5420  160.4923 N.pl3   1  UNL1       -0.1931
      6 C         144.7813  142.7387  161.0660 C.3     1  UNL1        0.2039
      7 C         145.1947  141.9865  162.2962 C.3     1  UNL1        0.0739
      8 H         145.1953  140.2177  164.6014 H       1  UNL1        0.1192
      9 H         145.6430  141.7898  164.2815 H       1  UNL1        0.1192
     10 C         142.9959  143.2941  159.2621 C.2     1  UNL1        0.3205
     11 N         142.2299  144.5774  159.3897 N.2     1  UNL1        0.0097
     12 C         141.8164  145.3295  158.1596 C.2     1  UNL1        0.4717
     13 N         142.1689  144.7983  156.8017 N.2     1  UNL1        0.0158
     14 C         142.9348  143.5149  156.6742 C.2     1  UNL1        0.3714
     15 N         143.4212  142.7510  155.4784 N.2     1  UNL1       -0.0339
     16 C         144.1352  141.5267  155.9696 C.2     1  UNL1        0.2323
     17 C         144.0902  141.5340  157.4689 C.2     1  UNL1        0.0486
     18 C         143.3483  142.7628  157.9044 C.3     1  UNL1        0.2428
     19 N         142.2155  139.9934  164.2079 N.am    1  UNL1       -0.3011
     20 C         143.6881  140.0365  163.9259 C.2     1  UNL1        0.2352
     21 O         144.6124  139.0783  164.6169 O.2     1  UNL1       -0.2737
     22 H         141.6088  140.6223  163.7543 H       1  UNL1        0.1497
     23 C         141.6672  138.9921  165.1810 C.3     1  UNL1        0.0966
     24 C         141.4692  139.3737  166.6181 C.ar    1  UNL1       -0.0044
     25 C         142.6169  139.2931  167.5805 C.ar    1  UNL1       -0.0018
     26 C         142.4189  139.6747  169.0175 C.ar    1  UNL1        0.0111
     27 C         141.0731  140.1367  169.4922 C.ar    1  UNL1        0.0577
     28 CL        140.8751  140.5183  170.9294 Cl      1  UNL1       -0.0822
     29 C         139.9253  140.2173  168.5299 C.ar    1  UNL1        0.0111
     30 C         140.1233  139.8357  167.0928 C.ar    1  UNL1       -0.0018
     31 C         141.3170  137.6094  164.7170 C.3     1  UNL1        0.0562
     32 C         141.1568  137.3279  163.2523 C.3     1  UNL1        0.1443
     33 C         139.3031  138.0032  161.5620 C.3     1  UNL1        0.1741
     34 O         140.5267  138.3525  162.3562 O.3     1  UNL1       -0.3510
@<TRIPOS>BOND
     1    33    34    1
     2    34    32    1
     3    32    31    1
     4    31    23    1
     5    23    19    1
     6    19    20   am
     7    20    21    2
     8    20     1    1
     9     1     2    1
    10     1     3    1
    11     3     4    1
    12     4     5    1
    13     5    10    1
    14    10    11    2
    15    11    12    1
    16    12    13    2
    17    13    14    1
    18    14    15    2
    19    15    16    1
    20    16    17    2
    21    17    18    1
    22     5     6    1
    23     6     7    1
    24    23    24    1
    25    24    25   ar
    26    25    26   ar
    27    26    27   ar
    28    27    28    1
    29    27    29   ar
    30    29    30   ar
    31     7     1    1
    32    30    24   ar
    33    18    10    1
    34    18    14    1
    35    19    22    1
    36     2     8    1
    37     2     9    1
@<TRIPOS>MOLECULE
*****
 34 37 0 0 0
SMALL
GASTEIGER

@<TRIPOS>ATOM
      1 C         138.5448  141.5687  163.7456 C.3     1  UNL1        0.1166
      2 N         137.2675  141.1107  163.1063 N.3     1  UNL1       -0.3162
      3 C         139.8354  142.3066  163.9458 C.3     1  UNL1        0.0739
      4 C         140.6441  142.0796  165.1885 C.3     1  UNL1        0.2039
      5 N         140.1623  141.1147  166.2311 N.pl3   1  UNL1       -0.1931
      6 C         138.8717  140.3768  166.0310 C.3     1  UNL1        0.2039
      7 C         138.0630  140.6039  164.7882 C.3     1  UNL1        0.0739
      8 H         137.1473  141.5833  162.2104 H       1  UNL1        0.1192
      9 H         136.4821  141.3351  163.7171 H       1  UNL1        0.1192
     10 C         140.9710  140.8877  167.4739 C.2     1  UNL1        0.3205
     11 N         141.7731  139.6294  167.6273 N.2     1  UNL1        0.0097
     12 C         142.5818  139.4024  168.8700 C.2     1  UNL1        0.4717
     13 N         142.5886  140.4337  169.9593 N.2     1  UNL1        0.0158
     14 C         141.7865  141.6919  169.8059 C.2     1  UNL1        0.3714
     15 N         141.5997  142.8788  170.7038 N.2     1  UNL1       -0.0339
     16 C         140.6755  143.8394  170.0160 C.2     1  UNL1        0.2323
     17 C         140.2911  143.2462  168.6930 C.2     1  UNL1        0.0486
     18 C         140.9777  141.9189  168.5631 C.3     1  UNL1        0.2428
     19 N         139.7784  142.2968  161.5782 N.am    1  UNL1       -0.3011
     20 C         138.5831  142.3745  162.4810 C.2     1  UNL1        0.2352
     21 O         137.4261  143.2580  162.1193 O.2     1  UNL1       -0.2737
     22 H         140.5378  141.7170  161.8157 H       1  UNL1        0.1497
     23 C         139.8168  143.1027  160.3136 C.3     1  UNL1        0.0966
     24 C         139.1340  142.5935  159.0789 C.ar    1  UNL1       -0.0044
     25 C         138.4059  141.2824  159.1110 C.ar    1  UNL1       -0.0018
     26 C         137.7231  140.7733  157.8763 C.ar    1  UNL1        0.0111
     27 C         137.7683  141.5753  156.6095 C.ar    1  UNL1        0.0577
     28 CL        137.0854  141.0661  155.3748 Cl      1  UNL1       -0.0822
     29 C         138.4963  142.8864  156.5774 C.ar    1  UNL1        0.0111
     30 C         139.1792  143.3956  157.8121 C.ar    1  UNL1       -0.0018
     31 C         140.5380  144.4176  160.2838 C.3     1  UNL1        0.0562
     32 C         140.0402  145.5650  161.1118 C.3     1  UNL1        0.1443
     33 C         141.8437  145.0867  162.9196 C.3     1  UNL1        0.1741
     34 O         140.5920  145.7916  162.4881 O.3     1  UNL1       -0.3510
@<TRIPOS>BOND
     1    33    34    1
     2    34    32    1
     3    32    31    1
     4    31    23    1
     5    23    19    1
     6    19    20   am
     7    20    21    2
     8    20     1    1
     9     1     2    1
    10     1     3    1
    11     3     4    1
    12     4     5    1
    13     5    10    1
    14    10    11    2
    15    11    12    1
    16    12    13    2
    17    13    14    1
    18    14    15    2
    19    15    16    1
    20    16    17    2
    21    17    18    1
    22     5     6    1
    23     6     7    1
    24    23    24    1
    25    24    25   ar
    26    25    26   ar
    27    26    27   ar
    28    27    28    1
    29    27    29   ar
    30    29    30   ar
    31     7     1    1
    32    30    24   ar
    33    18    10    1
    34    18    14    1
    35    19    22    1
    36     2     8    1
    37     2     9    1
@<TRIPOS>MOLECULE
*****
 34 37 0 0 0
SMALL
GASTEIGER

@<TRIPOS>ATOM
      1 C         139.6285  144.2180  163.0548 C.3     1  UNL1        0.1166
      2 N         139.5220  145.1558  164.2205 N.3     1  UNL1       -0.3162
      3 C         139.5495  142.9542  162.2506 C.3     1  UNL1        0.0739
      4 C         139.9674  142.9546  160.8100 C.3     1  UNL1        0.2039
      5 N         140.4642  144.2188  160.1735 N.pl3   1  UNL1       -0.1931
      6 C         140.5432  145.4825  160.9776 C.3     1  UNL1        0.2039
      7 C         140.1253  145.4821  162.4183 C.3     1  UNL1        0.0739
      8 H         139.1625  144.6514  165.0309 H       1  UNL1        0.1192
      9 H         138.8874  145.9191  163.9860 H       1  UNL1        0.1192
     10 C         140.8821  144.2191  158.7329 C.2     1  UNL1        0.3205
     11 N         139.9991  144.8477  157.6960 N.2     1  UNL1        0.0097
     12 C         140.4169  144.8481  156.2555 C.2     1  UNL1        0.4717
     13 N         141.7178  144.2199  155.8516 N.2     1  UNL1        0.0158
     14 C         142.6008  143.5913  156.8885 C.2     1  UNL1        0.3714
     15 N         143.9291  142.9013  156.7909 N.2     1  UNL1       -0.0339
     16 C         144.3322  142.4745  158.1713 C.2     1  UNL1        0.2323
     17 C         143.2530  142.9007  159.1219 C.2     1  UNL1        0.0486
     18 C         142.1830  143.5909  158.3291 C.3     1  UNL1        0.2428
     19 N         139.8971  142.0806  164.5071 N.am    1  UNL1       -0.3011
     20 C         139.0947  143.2795  164.0961 C.2     1  UNL1        0.2352
     21 O         137.7587  143.5398  164.7263 O.2     1  UNL1       -0.2737
     22 H         140.7739  141.9097  164.0934 H       1  UNL1        0.1497
     23 C         139.3634  141.1420  165.5484 C.3     1  UNL1        0.0966
     24 C         139.8204  141.2628  166.9719 C.ar    1  UNL1       -0.0044
     25 C         139.5903  140.1335  167.9319 C.ar    1  UNL1       -0.0018
     26 C         140.0473  140.2543  169.3555 C.ar    1  UNL1        0.0111
     27 C         140.7345  141.5045  169.8190 C.ar    1  UNL1        0.0577
     28 CL        141.1916  141.6253  171.2426 Cl      1  UNL1       -0.0822
     29 C         140.9647  142.6338  168.8590 C.ar    1  UNL1        0.0111
     30 C         140.5076  142.5130  167.4354 C.ar    1  UNL1       -0.0018
     31 C         138.3726  140.0827  165.1661 C.3     1  UNL1        0.0562
     32 C         138.3329  139.5658  163.7584 C.3     1  UNL1        0.1443
     33 C         139.7472  138.2476  162.0230 C.3     1  UNL1        0.1741
     34 O         139.6081  139.3866  162.9891 O.3     1  UNL1       -0.3510
@<TRIPOS>BOND
     1    33    34    1
     2    34    32    1
     3    32    31    1
     4    31    23    1
     5    23    19    1
     6    19    20   am
     7    20    21    2
     8    20     1    1
     9     1     2    1
    10     1     3    1
    11     3     4    1
    12     4     5    1
    13     5    10    1
    14    10    11    2
    15    11    12    1
    16    12    13    2
    17    13    14    1
    18    14    15    2
    19    15    16    1
    20    16    17    2
    21    17    18    1
    22     5     6    1
    23     6     7    1
    24    23    24    1
    25    24    25   ar
    26    25    26   ar
    27    26    27   ar
    28    27    28    1
    29    27    29   ar
    30    29    30   ar
    31     7     1    1
    32    30    24   ar
    33    18    10    1
    34    18    14    1
    35    19    22    1
    36     2     8    1
    37     2     9    1
