@<TRIPOS>MOLECULE
*****
 36 38 0 0 0
SMALL
GASTEIGER

@<TRIPOS>ATOM
      1 C         138.5200  139.4400  159.7995 C.3     1  UNL1        0.1017
      2 C         137.5645  139.4217  160.9557 C.3     1  UNL1        0.0394
      3 C         137.9566  138.7575  162.2423 C.3     1  UNL1        0.0739
      4 N         139.3041  138.1117  162.3726 N.3     1  UNL1       -0.2705
      5 C         140.2596  138.1299  161.2165 C.3     1  UNL1        0.1037
      6 C         139.8675  138.7941  159.9300 C.3     1  UNL1        0.1490
      7 C         138.1520  141.5999  158.4034 C.2     1  UNL1        0.2488
      8 O         138.5681  142.4316  159.5803 O.2     1  UNL1       -0.2700
      9 N         138.1279  140.1041  158.5130 N.am    1  UNL1       -0.2999
     10 H         137.8548  139.5583  157.7405 H       1  UNL1        0.1498
     11 C         136.5878  141.7504  156.3344 C.ar    1  UNL1        0.1443
     12 C         136.1958  142.4145  155.0479 C.ar    1  UNL1        0.0520
     13 C         136.9760  143.5923  154.5437 C.ar    1  UNL1        0.0553
     14 N         136.5839  144.2564  153.2571 N.pl3   1  UNL1       -0.3563
     15 C         138.1482  144.1059  155.3260 C.ar    1  UNL1        0.0709
     16 CL        138.9284  145.2836  154.8218 Cl      1  UNL1       -0.0810
     17 C         138.5402  143.4418  156.6126 C.ar    1  UNL1        0.0202
     18 C         137.7600  142.2640  157.1168 C.ar    1  UNL1        0.0882
     19 H         135.8145  143.9193  152.7436 H       1  UNL1        0.1424
     20 H         137.0960  145.0294  152.9261 H       1  UNL1        0.1424
     21 C         134.4526  140.2716  156.2699 C.3     1  UNL1        0.2525
     22 O         135.8076  140.5727  156.8386 O.3     1  UNL1       -0.4712
     23 O         140.8230  138.8123  158.7738 O.3     1  UNL1       -0.3505
     24 C         142.2543  138.4123  158.9772 C.3     1  UNL1        0.1741
     25 C         139.6961  137.4475  163.6592 C.3     1  UNL1        0.0722
     26 C         139.9018  138.2709  164.8960 C.3     1  UNL1        0.0194
     27 C         141.2779  138.7409  165.2638 C.3     1  UNL1        0.0229
     28 C         141.4836  139.5643  166.5007 C.3     1  UNL1        0.0910
     29 N         140.3132  139.9177  167.3696 N.am    1  UNL1       -0.3055
     30 C         138.9370  139.4477  167.0018 C.3     1  UNL1        0.0910
     31 C         138.7313  138.6243  165.7650 C.3     1  UNL1        0.0229
     32 C         140.5189  140.7411  168.6064 C.2     1  UNL1        0.0609
     33 S         140.7789  140.0675  169.9213 S.2     1  UNL1       -0.0395
     34 C         140.4646  142.2381  168.5285 C.3     1  UNL1        0.0426
     35 C         140.3807  142.9170  167.1936 C.3     1  UNL1        0.0066
     36 C         140.4942  143.0561  169.7854 C.3     1  UNL1        0.0066
@<TRIPOS>BOND
     1    21    22    1
     2    22    11    1
     3    11    12   ar
     4    12    13   ar
     5    13    14    1
     6    13    15   ar
     7    15    16    1
     8    15    17   ar
     9    17    18   ar
    10    18     7    1
    11     7     8    2
    12     7     9   am
    13     1     9    1
    14     1     2    1
    15     2     3    1
    16     3     4    1
    17     4    25    1
    18    25    26    1
    19    26    27    1
    20    27    28    1
    21    28    29    1
    22    29    32    1
    23    32    33    2
    24    32    34    1
    25    34    35    1
    26    34    36    1
    27    29    30    1
    28    30    31    1
    29     4     5    1
    30     5     6    1
    31     6    23    1
    32    23    24    1
    33    18    11   ar
    34     6     1    1
    35    31    26    1
    36    14    19    1
    37    14    20    1
    38     9    10    1
@<TRIPOS>MOLECULE
*****
 36 38 0 0 0
SMALL
GASTEIGER

@<TRIPOS>ATOM
      1 C         141.1372  138.8638  161.0436 C.3     1  UNL1        0.1017
      2 C         140.1040  138.7748  159.9599 C.3     1  UNL1        0.0394
      3 C         140.4973  138.3256  158.5837 C.3     1  UNL1        0.0739
      4 N         141.9238  137.9654  158.2915 N.3     1  UNL1       -0.2705
      5 C         142.9570  138.0544  159.3753 C.3     1  UNL1        0.1037
      6 C         142.5637  138.5036  160.7513 C.3     1  UNL1        0.1490
      7 C         140.5323  138.3015  163.5069 C.2     1  UNL1        0.2488
      8 O         140.7140  136.8408  163.2181 O.2     1  UNL1       -0.2700
      9 N         140.7439  139.3130  162.4197 N.am    1  UNL1       -0.2999
     10 H         140.6247  140.2717  162.6092 H       1  UNL1        0.1498
     11 C         141.0356  139.6717  165.6562 C.ar    1  UNL1        0.1443
     12 C         140.6423  140.1209  167.0322 C.ar    1  UNL1        0.0520
     13 C         139.3524  139.6491  167.6351 C.ar    1  UNL1        0.0553
     14 N         138.9592  140.0983  169.0112 N.pl3   1  UNL1       -0.3563
     15 C         138.4558  138.7281  166.8620 C.ar    1  UNL1        0.0709
     16 CL        137.1659  138.2562  167.4649 Cl      1  UNL1       -0.0810
     17 C         138.8491  138.2789  165.4860 C.ar    1  UNL1        0.0202
     18 C         140.1390  138.7507  164.8830 C.ar    1  UNL1        0.0882
     19 H         139.5476  140.7029  169.5186 H       1  UNL1        0.1424
     20 H         138.1125  139.7887  169.4069 H       1  UNL1        0.1424
     21 C         142.6793  141.6009  165.0845 C.3     1  UNL1        0.2525
     22 O         142.3255  140.1436  165.0532 O.3     1  UNL1       -0.4712
     23 O         143.5969  138.5926  161.8351 O.3     1  UNL1       -0.3505
     24 C         144.3080  139.8887  162.0888 C.3     1  UNL1        0.1741
     25 C         142.3170  137.5162  156.9154 C.3     1  UNL1        0.0722
     26 C         142.3312  136.0545  156.5791 C.3     1  UNL1        0.0194
     27 C         141.3820  135.5120  155.5521 C.3     1  UNL1        0.0229
     28 C         141.3962  134.0502  155.2158 C.3     1  UNL1        0.0910
     29 N         142.3596  133.1311  155.9064 N.am    1  UNL1       -0.3055
     30 C         143.3089  133.6736  156.9334 C.3     1  UNL1        0.0910
     31 C         143.2947  135.1353  157.2697 C.3     1  UNL1        0.0229
     32 C         142.3738  131.6693  155.5700 C.2     1  UNL1        0.0609
     33 S         141.2976  131.0892  154.7008 S.2     1  UNL1       -0.0395
     34 C         143.4641  130.7877  156.1027 C.3     1  UNL1        0.0426
     35 C         144.7272  130.5984  155.3162 C.3     1  UNL1        0.0066
     36 C         143.2913  130.0953  157.4221 C.3     1  UNL1        0.0066
@<TRIPOS>BOND
     1    21    22    1
     2    22    11    1
     3    11    12   ar
     4    12    13   ar
     5    13    14    1
     6    13    15   ar
     7    15    16    1
     8    15    17   ar
     9    17    18   ar
    10    18     7    1
    11     7     8    2
    12     7     9   am
    13     1     9    1
    14     1     2    1
    15     2     3    1
    16     3     4    1
    17     4    25    1
    18    25    26    1
    19    26    27    1
    20    27    28    1
    21    28    29    1
    22    29    32    1
    23    32    33    2
    24    32    34    1
    25    34    35    1
    26    34    36    1
    27    29    30    1
    28    30    31    1
    29     4     5    1
    30     5     6    1
    31     6    23    1
    32    23    24    1
    33    18    11   ar
    34     6     1    1
    35    31    26    1
    36    14    19    1
    37    14    20    1
    38     9    10    1
@<TRIPOS>MOLECULE
*****
 36 38 0 0 0
SMALL
GASTEIGER

@<TRIPOS>ATOM
      1 C         138.9722  138.6596  160.1156 C.3     1  UNL1        0.1017
      2 C         139.4336  138.2076  161.4695 C.3     1  UNL1        0.0394
      3 C         138.9927  138.9475  162.6976 C.3     1  UNL1        0.0739
      4 N         138.0905  140.1392  162.5720 N.3     1  UNL1       -0.2705
      5 C         137.6291  140.5911  161.2181 C.3     1  UNL1        0.1037
      6 C         138.0700  139.8514  159.9900 C.3     1  UNL1        0.1490
      7 C         140.6092  138.3930  158.1158 C.2     1  UNL1        0.2488
      8 O         141.3645  139.6058  158.5724 O.2     1  UNL1       -0.2700
      9 N         139.4131  137.9199  158.8875 N.am    1  UNL1       -0.2999
     10 H         138.9173  137.1238  158.5878 H       1  UNL1        0.1498
     11 C         140.0810  137.4137  155.7681 C.ar    1  UNL1        0.1443
     12 C         140.5218  136.6739  154.5399 C.ar    1  UNL1        0.0520
     13 C         141.9317  136.1736  154.4314 C.ar    1  UNL1        0.0553
     14 N         142.3726  135.4338  153.2032 N.pl3   1  UNL1       -0.3563
     15 C         142.9008  136.4131  155.5510 C.ar    1  UNL1        0.0709
     16 CL        144.3108  135.9127  155.4424 Cl      1  UNL1       -0.0810
     17 C         142.4600  137.1528  156.7791 C.ar    1  UNL1        0.0202
     18 C         141.0500  137.6532  156.8876 C.ar    1  UNL1        0.0882
     19 H         141.7365  135.2766  152.4684 H       1  UNL1        0.1424
     20 H         143.2980  135.1054  153.1319 H       1  UNL1        0.1424
     21 C         138.2755  139.1943  155.2025 C.3     1  UNL1        0.2525
     22 O         138.6710  137.9140  155.8766 O.3     1  UNL1       -0.4712
     23 O         137.6086  140.3033  158.6361 O.3     1  UNL1       -0.3505
     24 C         138.1237  141.5883  158.0586 C.3     1  UNL1        0.1741
     25 C         137.6496  140.8789  163.8001 C.3     1  UNL1        0.0722
     26 C         138.4127  140.7255  165.0824 C.3     1  UNL1        0.0194
     27 C         138.1569  139.5441  165.9706 C.3     1  UNL1        0.0229
     28 C         138.9199  139.3907  167.2529 C.3     1  UNL1        0.0910
     29 N         139.9387  140.4187  167.6470 N.am    1  UNL1       -0.3055
     30 C         140.1945  141.6001  166.7588 C.3     1  UNL1        0.0910
     31 C         139.4315  141.7535  165.4765 C.3     1  UNL1        0.0229
     32 C         140.7017  140.2653  168.9293 C.2     1  UNL1        0.0609
     33 S         139.9757  140.2912  170.2417 S.2     1  UNL1       -0.0395
     34 C         142.1906  140.0861  168.8992 C.3     1  UNL1        0.0426
     35 C         142.8183  139.1972  167.8668 C.3     1  UNL1        0.0066
     36 C         143.0518  140.7957  169.9015 C.3     1  UNL1        0.0066
@<TRIPOS>BOND
     1    21    22    1
     2    22    11    1
     3    11    12   ar
     4    12    13   ar
     5    13    14    1
     6    13    15   ar
     7    15    16    1
     8    15    17   ar
     9    17    18   ar
    10    18     7    1
    11     7     8    2
    12     7     9   am
    13     1     9    1
    14     1     2    1
    15     2     3    1
    16     3     4    1
    17     4    25    1
    18    25    26    1
    19    26    27    1
    20    27    28    1
    21    28    29    1
    22    29    32    1
    23    32    33    2
    24    32    34    1
    25    34    35    1
    26    34    36    1
    27    29    30    1
    28    30    31    1
    29     4     5    1
    30     5     6    1
    31     6    23    1
    32    23    24    1
    33    18    11   ar
    34     6     1    1
    35    31    26    1
    36    14    19    1
    37    14    20    1
    38     9    10    1
@<TRIPOS>MOLECULE
*****
 36 38 0 0 0
SMALL
GASTEIGER

@<TRIPOS>ATOM
      1 C         138.2612  140.4865  160.8880 C.3     1  UNL1        0.1017
      2 C         138.8179  139.0945  160.8380 C.3     1  UNL1        0.0394
      3 C         139.0200  138.3215  162.1075 C.3     1  UNL1        0.0739
      4 N         138.6654  138.9405  163.4270 N.3     1  UNL1       -0.2705
      5 C         138.1087  140.3325  163.4770 C.3     1  UNL1        0.1037
      6 C         137.9066  141.1055  162.2076 C.3     1  UNL1        0.1490
      7 C         139.1044  142.2316  159.1578 C.2     1  UNL1        0.2488
      8 O         140.3519  142.4307  159.9665 O.2     1  UNL1       -0.2700
      9 N         138.0591  141.2595  159.6185 N.am    1  UNL1       -0.2999
     10 H         137.2403  141.1288  159.0877 H       1  UNL1        0.1498
     11 C         137.8621  142.5659  156.9006 C.ar    1  UNL1        0.1443
     12 C         137.6600  143.3389  155.6311 C.ar    1  UNL1        0.0520
     13 C         138.4980  144.5506  155.3493 C.ar    1  UNL1        0.0553
     14 N         138.2959  145.3236  154.0798 N.pl3   1  UNL1       -0.3563
     15 C         139.5382  144.9893  156.3370 C.ar    1  UNL1        0.0709
     16 CL        140.3763  146.2010  156.0552 Cl      1  UNL1       -0.0810
     17 C         139.7403  144.2163  157.6065 C.ar    1  UNL1        0.0202
     18 C         138.9023  143.0046  157.8883 C.ar    1  UNL1        0.0882
     19 H         137.6132  145.0356  153.4315 H       1  UNL1        0.1424
     20 H         138.8459  146.1189  153.8948 H       1  UNL1        0.1424
     21 C         135.8767  141.0094  156.2799 C.3     1  UNL1        0.2525
     22 O         137.0241  141.3541  157.1824 O.3     1  UNL1       -0.4712
     23 O         137.3498  142.4974  162.2576 O.3     1  UNL1       -0.3505
     24 C         138.2191  143.6375  162.6987 C.3     1  UNL1        0.1741
     25 C         138.8675  138.1675  164.6965 C.3     1  UNL1        0.0722
     26 C         139.4519  138.8435  165.9013 C.3     1  UNL1        0.0194
     27 C         140.9177  139.1583  165.9475 C.3     1  UNL1        0.0229
     28 C         141.5021  139.8343  167.1523 C.3     1  UNL1        0.0910
     29 N         140.6206  140.1956  168.3109 N.am    1  UNL1       -0.3055
     30 C         139.1546  139.8808  168.2647 C.3     1  UNL1        0.0910
     31 C         138.5703  139.2048  167.0599 C.3     1  UNL1        0.0229
     32 C         141.2049  140.8716  169.5157 C.2     1  UNL1        0.0609
     33 S         141.5358  140.0692  170.7391 S.2     1  UNL1       -0.0395
     34 C         141.4583  142.3499  169.4970 C.3     1  UNL1        0.0426
     35 C         140.3494  143.2966  169.1450 C.3     1  UNL1        0.0066
     36 C         142.8208  142.8814  169.8304 C.3     1  UNL1        0.0066
@<TRIPOS>BOND
     1    21    22    1
     2    22    11    1
     3    11    12   ar
     4    12    13   ar
     5    13    14    1
     6    13    15   ar
     7    15    16    1
     8    15    17   ar
     9    17    18   ar
    10    18     7    1
    11     7     8    2
    12     7     9   am
    13     1     9    1
    14     1     2    1
    15     2     3    1
    16     3     4    1
    17     4    25    1
    18    25    26    1
    19    26    27    1
    20    27    28    1
    21    28    29    1
    22    29    32    1
    23    32    33    2
    24    32    34    1
    25    34    35    1
    26    34    36    1
    27    29    30    1
    28    30    31    1
    29     4     5    1
    30     5     6    1
    31     6    23    1
    32    23    24    1
    33    18    11   ar
    34     6     1    1
    35    31    26    1
    36    14    19    1
    37    14    20    1
    38     9    10    1
@<TRIPOS>MOLECULE
*****
 36 38 0 0 0
SMALL
GASTEIGER

@<TRIPOS>ATOM
      1 C         141.1514  140.4324  162.8440 C.3     1  UNL1        0.1017
      2 C         141.6768  141.6340  162.1158 C.3     1  UNL1        0.0394
      3 C         141.7345  141.6366  160.6168 C.3     1  UNL1        0.0739
      4 N         141.2668  140.4377  159.8462 N.3     1  UNL1       -0.2705
      5 C         140.7415  139.2362  160.5744 C.3     1  UNL1        0.1037
      6 C         140.6838  139.2335  162.0733 C.3     1  UNL1        0.1490
      7 C         140.1365  141.3364  165.0582 C.2     1  UNL1        0.2488
      8 O         139.2370  142.2457  164.2747 O.2     1  UNL1       -0.2700
      9 N         141.0938  140.4298  164.3428 N.am    1  UNL1       -0.2999
     10 H         141.6842  139.8330  164.8571 H       1  UNL1        0.1498
     11 C         139.5566  140.1309  167.2854 C.ar    1  UNL1        0.1443
     12 C         139.4989  140.1283  168.7843 C.ar    1  UNL1        0.0520
     13 C         139.9636  141.3284  169.5548 C.ar    1  UNL1        0.0553
     14 N         139.9059  141.3257  171.0538 N.pl3   1  UNL1       -0.3563
     15 C         140.4859  142.5312  168.8266 C.ar    1  UNL1        0.0709
     16 CL        140.9506  143.7313  169.5971 Cl      1  UNL1       -0.0810
     17 C         140.5435  142.5338  167.3277 C.ar    1  UNL1        0.0202
     18 C         140.0789  141.3337  166.5571 C.ar    1  UNL1        0.0882
     19 H         139.5631  140.5362  171.5318 H       1  UNL1        0.1424
     20 H         140.2109  142.1133  171.5596 H       1  UNL1        0.1424
     21 C         137.7413  138.3393  166.7905 C.3     1  UNL1        0.2525
     22 O         139.0919  138.9308  166.5148 O.3     1  UNL1       -0.4712
     23 O         140.1585  138.0320  162.8015 O.3     1  UNL1       -0.3505
     24 C         138.6830  137.8730  163.0198 C.3     1  UNL1        0.1741
     25 C         141.3245  140.4404  158.3473 C.3     1  UNL1        0.0722
     26 C         141.5546  139.1584  157.6033 C.3     1  UNL1        0.0194
     27 C         142.9508  138.7300  157.2613 C.3     1  UNL1        0.0229
     28 C         143.1809  137.4480  156.5173 C.3     1  UNL1        0.0910
     29 N         142.0148  136.5944  156.1153 N.am    1  UNL1       -0.3055
     30 C         140.6185  137.0228  156.4574 C.3     1  UNL1        0.0910
     31 C         140.3884  138.3048  157.2014 C.3     1  UNL1        0.0229
     32 C         142.2449  135.3124  155.3713 C.2     1  UNL1        0.0609
     33 S         142.2899  135.3131  153.8720 S.2     1  UNL1       -0.0395
     34 C         142.4301  134.0298  156.1266 C.3     1  UNL1        0.0426
     35 C         141.7626  132.7746  155.6482 C.3     1  UNL1        0.0066
     36 C         143.2827  134.0023  157.3604 C.3     1  UNL1        0.0066
@<TRIPOS>BOND
     1    21    22    1
     2    22    11    1
     3    11    12   ar
     4    12    13   ar
     5    13    14    1
     6    13    15   ar
     7    15    16    1
     8    15    17   ar
     9    17    18   ar
    10    18     7    1
    11     7     8    2
    12     7     9   am
    13     1     9    1
    14     1     2    1
    15     2     3    1
    16     3     4    1
    17     4    25    1
    18    25    26    1
    19    26    27    1
    20    27    28    1
    21    28    29    1
    22    29    32    1
    23    32    33    2
    24    32    34    1
    25    34    35    1
    26    34    36    1
    27    29    30    1
    28    30    31    1
    29     4     5    1
    30     5     6    1
    31     6    23    1
    32    23    24    1
    33    18    11   ar
    34     6     1    1
    35    31    26    1
    36    14    19    1
    37    14    20    1
    38     9    10    1
@<TRIPOS>MOLECULE
*****
 36 38 0 0 0
SMALL
GASTEIGER

@<TRIPOS>ATOM
      1 C         142.1492  140.9889  163.3682 C.3     1  UNL1        0.1017
      2 C         141.0933  141.0032  162.3029 C.3     1  UNL1        0.0394
      3 C         141.4868  140.9546  160.8562 C.3     1  UNL1        0.0739
      4 N         142.9361  140.8917  160.4749 N.3     1  UNL1       -0.2705
      5 C         143.9920  140.8774  161.5402 C.3     1  UNL1        0.1037
      6 C         143.5986  140.9259  162.9868 C.3     1  UNL1        0.1490
      7 C         141.8446  139.8002  165.6582 C.2     1  UNL1        0.2488
      8 O         142.3268  138.5143  165.0549 O.2     1  UNL1       -0.2700
      9 N         141.7557  141.0374  164.8148 N.am    1  UNL1       -0.2999
     10 H         141.4392  141.8814  165.2108 H       1  UNL1        0.1498
     11 C         140.0285  140.1329  167.4861 C.ar    1  UNL1        0.1443
     12 C         139.6351  140.1815  168.9327 C.ar    1  UNL1        0.0520
     13 C         140.6643  139.9460  169.9982 C.ar    1  UNL1        0.0553
     14 N         140.2708  139.9946  171.4449 N.pl3   1  UNL1       -0.3563
     15 C         142.0869  139.6619  169.6170 C.ar    1  UNL1        0.0709
     16 CL        143.1162  139.4264  170.6825 Cl      1  UNL1       -0.0810
     17 C         142.4803  139.6133  168.1704 C.ar    1  UNL1        0.0202
     18 C         141.4511  139.8488  167.1049 C.ar    1  UNL1        0.0882
     19 H         139.3371  140.1811  171.6951 H       1  UNL1        0.1424
     20 H         140.9463  139.8401  172.1442 H       1  UNL1        0.1424
     21 C         138.1497  139.2319  165.9343 C.3     1  UNL1        0.2525
     22 O         138.9992  140.3683  166.4206 O.3     1  UNL1       -0.4712
     23 O         144.6545  140.9116  164.0521 O.3     1  UNL1       -0.3505
     24 C         145.9330  141.6698  163.8512 C.3     1  UNL1        0.1741
     25 C         143.3296  140.8431  159.0282 C.3     1  UNL1        0.0722
     26 C         143.1779  139.5685  158.2521 C.3     1  UNL1        0.0194
     27 C         143.4072  139.5612  156.7698 C.3     1  UNL1        0.0229
     28 C         143.2555  138.2866  155.9937 C.3     1  UNL1        0.0910
     29 N         142.8746  137.0193  156.6999 N.am    1  UNL1       -0.3055
     30 C         142.6452  137.0266  158.1823 C.3     1  UNL1        0.0910
     31 C         142.7969  138.3012  158.9584 C.3     1  UNL1        0.0229
     32 C         142.7229  135.7447  155.9238 C.2     1  UNL1        0.0609
     33 S         143.8973  134.8275  155.7510 S.2     1  UNL1       -0.0395
     34 C         141.3970  135.3872  155.3204 C.3     1  UNL1        0.0426
     35 C         140.2866  136.3955  155.2987 C.3     1  UNL1        0.0066
     36 C         141.1814  134.0215  154.7389 C.3     1  UNL1        0.0066
@<TRIPOS>BOND
     1    21    22    1
     2    22    11    1
     3    11    12   ar
     4    12    13   ar
     5    13    14    1
     6    13    15   ar
     7    15    16    1
     8    15    17   ar
     9    17    18   ar
    10    18     7    1
    11     7     8    2
    12     7     9   am
    13     1     9    1
    14     1     2    1
    15     2     3    1
    16     3     4    1
    17     4    25    1
    18    25    26    1
    19    26    27    1
    20    27    28    1
    21    28    29    1
    22    29    32    1
    23    32    33    2
    24    32    34    1
    25    34    35    1
    26    34    36    1
    27    29    30    1
    28    30    31    1
    29     4     5    1
    30     5     6    1
    31     6    23    1
    32    23    24    1
    33    18    11   ar
    34     6     1    1
    35    31    26    1
    36    14    19    1
    37    14    20    1
    38     9    10    1
@<TRIPOS>MOLECULE
*****
 36 38 0 0 0
SMALL
GASTEIGER

@<TRIPOS>ATOM
      1 C         141.6051  139.3660  162.6892 C.3     1  UNL1        0.1017
      2 C         142.3337  140.4129  161.8997 C.3     1  UNL1        0.0394
      3 C         142.1878  140.4637  160.4076 C.3     1  UNL1        0.0739
      4 N         141.3135  139.4677  159.7052 N.3     1  UNL1       -0.2705
      5 C         140.5849  138.4209  160.4947 C.3     1  UNL1        0.1037
      6 C         140.7307  138.3700  161.9867 C.3     1  UNL1        0.1490
      7 C         140.7269  139.9733  165.0578 C.2     1  UNL1        0.2488
      8 O         139.5572  140.6824  164.4423 O.2     1  UNL1       -0.2700
      9 N         141.7509  139.3151  164.1812 N.am    1  UNL1       -0.2999
     10 H         142.5186  138.8497  164.5852 H       1  UNL1        0.1498
     11 C         142.1968  139.5737  167.1625 C.ar    1  UNL1        0.1443
     12 C         142.3426  139.5228  168.6545 C.ar    1  UNL1        0.0520
     13 C         141.1644  139.8206  169.5338 C.ar    1  UNL1        0.0553
     14 N         141.3102  139.7697  171.0259 N.pl3   1  UNL1       -0.3563
     15 C         139.8404  140.1693  168.9211 C.ar    1  UNL1        0.0709
     16 CL        138.6622  140.4672  169.8004 Cl      1  UNL1       -0.0810
     17 C         139.6946  140.2202  167.4291 C.ar    1  UNL1        0.0202
     18 C         140.8728  139.9224  166.5498 C.ar    1  UNL1        0.0882
     19 H         142.1792  139.5409  171.4280 H       1  UNL1        0.1424
     20 H         140.5369  139.9652  171.6030 H       1  UNL1        0.1424
     21 C         144.1106  137.9769  166.4294 C.3     1  UNL1        0.2525
     22 O         143.3750  139.2759  166.2832 O.3     1  UNL1       -0.4712
     23 O         140.0022  137.3232  162.7762 O.3     1  UNL1       -0.3505
     24 C         138.5475  137.5018  163.0956 C.3     1  UNL1        0.1741
     25 C         141.1677  139.5186  158.2132 C.3     1  UNL1        0.0722
     26 C         141.2999  138.2629  157.4034 C.3     1  UNL1        0.0194
     27 C         140.1299  137.7514  156.6163 C.3     1  UNL1        0.0229
     28 C         140.2621  136.4957  155.8066 C.3     1  UNL1        0.0910
     29 N         141.5642  135.7515  155.7839 N.am    1  UNL1       -0.3055
     30 C         142.7343  136.2630  156.5710 C.3     1  UNL1        0.0910
     31 C         142.6021  137.5187  157.3807 C.3     1  UNL1        0.0229
     32 C         141.6964  134.4958  154.9741 C.2     1  UNL1        0.0609
     33 S         141.9839  133.1907  155.6555 S.2     1  UNL1       -0.0395
     34 C         141.5410  134.5450  153.4830 C.3     1  UNL1        0.0426
     35 C         142.0073  135.7492  152.7198 C.3     1  UNL1        0.0066
     36 C         140.9194  133.3902  152.7552 C.3     1  UNL1        0.0066
@<TRIPOS>BOND
     1    21    22    1
     2    22    11    1
     3    11    12   ar
     4    12    13   ar
     5    13    14    1
     6    13    15   ar
     7    15    16    1
     8    15    17   ar
     9    17    18   ar
    10    18     7    1
    11     7     8    2
    12     7     9   am
    13     1     9    1
    14     1     2    1
    15     2     3    1
    16     3     4    1
    17     4    25    1
    18    25    26    1
    19    26    27    1
    20    27    28    1
    21    28    29    1
    22    29    32    1
    23    32    33    2
    24    32    34    1
    25    34    35    1
    26    34    36    1
    27    29    30    1
    28    30    31    1
    29     4     5    1
    30     5     6    1
    31     6    23    1
    32    23    24    1
    33    18    11   ar
    34     6     1    1
    35    31    26    1
    36    14    19    1
    37    14    20    1
    38     9    10    1
@<TRIPOS>MOLECULE
*****
 36 38 0 0 0
SMALL
GASTEIGER

@<TRIPOS>ATOM
      1 C         140.8893  142.9109  163.4482 C.3     1  UNL1        0.1017
      2 C         141.9385  143.9575  163.2160 C.3     1  UNL1        0.0394
      3 C         142.2356  144.4252  161.8220 C.3     1  UNL1        0.0739
      4 N         141.4835  143.8464  160.6604 N.3     1  UNL1       -0.2705
      5 C         140.4344  142.7998  160.8927 C.3     1  UNL1        0.1037
      6 C         140.1373  142.3320  162.2865 C.3     1  UNL1        0.1490
      7 C         141.4367  141.3746  165.4707 C.2     1  UNL1        0.2488
      8 O         142.5783  140.7738  164.7054 O.2     1  UNL1       -0.2700
      9 N         140.5922  142.4431  164.8421 N.am    1  UNL1       -0.2999
     10 H         139.8429  142.8375  165.3444 H       1  UNL1        0.1498
     11 C         139.7593  140.4398  167.2207 C.ar    1  UNL1        0.1443
     12 C         139.4622  139.9721  168.6146 C.ar    1  UNL1        0.0520
     13 C         140.5453  139.9715  169.6524 C.ar    1  UNL1        0.0553
     14 N         140.2482  139.5038  171.0463 N.pl3   1  UNL1       -0.3563
     15 C         141.9255  140.4385  169.2962 C.ar    1  UNL1        0.0709
     16 CL        143.0086  140.4379  170.3340 Cl      1  UNL1       -0.0810
     17 C         142.2226  140.9062  167.9023 C.ar    1  UNL1        0.0202
     18 C         141.1395  140.9069  166.8646 C.ar    1  UNL1        0.0882
     19 H         139.3423  139.1972  171.2800 H       1  UNL1        0.1424
     20 H         140.9590  139.5033  171.7274 H       1  UNL1        0.1424
     21 C         138.3389  139.1760  165.4502 C.3     1  UNL1        0.2525
     22 O         138.6763  140.4405  166.1830 O.3     1  UNL1       -0.4712
     23 O         139.0882  141.2854  162.5188 O.3     1  UNL1       -0.3505
     24 C         137.6612  141.6904  162.7417 C.3     1  UNL1        0.1741
     25 C         141.7807  144.3141  159.2666 C.3     1  UNL1        0.0722
     26 C         142.7316  143.5401  158.4024 C.3     1  UNL1        0.0194
     27 C         142.6542  143.6587  156.9092 C.3     1  UNL1        0.0229
     28 C         143.6051  142.8848  156.0450 C.3     1  UNL1        0.0910
     29 N         144.6335  141.9922  156.6742 N.am    1  UNL1       -0.3055
     30 C         144.7109  141.8736  158.1675 C.3     1  UNL1        0.0910
     31 C         143.7600  142.6476  159.0317 C.3     1  UNL1        0.0229
     32 C         145.5844  141.2183  155.8101 C.2     1  UNL1        0.0609
     33 S         145.2315  139.8307  155.3626 S.2     1  UNL1       -0.0395
     34 C         146.8882  141.8318  155.3934 C.3     1  UNL1        0.0426
     35 C         147.3442  141.7286  153.9681 C.3     1  UNL1        0.0066
     36 C         147.7360  142.5486  156.4020 C.3     1  UNL1        0.0066
@<TRIPOS>BOND
     1    21    22    1
     2    22    11    1
     3    11    12   ar
     4    12    13   ar
     5    13    14    1
     6    13    15   ar
     7    15    16    1
     8    15    17   ar
     9    17    18   ar
    10    18     7    1
    11     7     8    2
    12     7     9   am
    13     1     9    1
    14     1     2    1
    15     2     3    1
    16     3     4    1
    17     4    25    1
    18    25    26    1
    19    26    27    1
    20    27    28    1
    21    28    29    1
    22    29    32    1
    23    32    33    2
    24    32    34    1
    25    34    35    1
    26    34    36    1
    27    29    30    1
    28    30    31    1
    29     4     5    1
    30     5     6    1
    31     6    23    1
    32    23    24    1
    33    18    11   ar
    34     6     1    1
    35    31    26    1
    36    14    19    1
    37    14    20    1
    38     9    10    1
@<TRIPOS>MOLECULE
*****
 36 38 0 0 0
SMALL
GASTEIGER

@<TRIPOS>ATOM
      1 C         140.8615  139.1300  159.9376 C.3     1  UNL1        0.1017
      2 C         139.7203  138.6509  159.0901 C.3     1  UNL1        0.0394
      3 C         139.9697  138.2017  157.6808 C.3     1  UNL1        0.0739
      4 N         141.3601  138.2318  157.1189 N.3     1  UNL1       -0.2705
      5 C         142.5013  138.7109  157.9664 C.3     1  UNL1        0.1037
      6 C         142.2520  139.1601  159.3757 C.3     1  UNL1        0.1490
      7 C         140.7227  138.5991  162.4770 C.2     1  UNL1        0.2488
      8 O         141.0825  137.1699  162.1979 O.2     1  UNL1       -0.2700
      9 N         140.6122  139.5791  161.3468 N.am    1  UNL1       -0.2999
     10 H         140.3760  140.5172  161.5300 H       1  UNL1        0.1498
     11 C         139.1308  139.5940  164.2731 C.ar    1  UNL1        0.1443
     12 C         138.8815  140.0431  165.6824 C.ar    1  UNL1        0.0520
     13 C         139.9748  139.9465  166.7049 C.ar    1  UNL1        0.0553
     14 N         139.7255  140.3957  168.1142 N.pl3   1  UNL1       -0.3563
     15 C         141.3174  139.4008  166.3180 C.ar    1  UNL1        0.0709
     16 CL        142.4107  139.3042  167.3405 Cl      1  UNL1       -0.0810
     17 C         141.5666  138.9517  164.9088 C.ar    1  UNL1        0.0202
     18 C         140.4734  139.0483  163.8863 C.ar    1  UNL1        0.0882
     19 H         138.8443  140.7539  168.3681 H       1  UNL1        0.1424
     20 H         140.4431  140.3323  168.7853 H       1  UNL1        0.1424
     21 C         137.4805  141.0310  162.8727 C.3     1  UNL1        0.2525
     22 O         138.0375  139.6906  163.2507 O.3     1  UNL1       -0.4712
     23 O         143.3931  139.6392  160.2231 O.3     1  UNL1       -0.3505
     24 C         144.2225  138.6533  160.9913 C.3     1  UNL1        0.1741
     25 C         141.6094  137.7827  155.7097 C.3     1  UNL1        0.0722
     26 C         141.9862  136.3575  155.4322 C.3     1  UNL1        0.0194
     27 C         142.3464  135.4428  156.5651 C.3     1  UNL1        0.0229
     28 C         142.7232  134.0176  156.2876 C.3     1  UNL1        0.0910
     29 N         142.7396  133.5072  154.8773 N.am    1  UNL1       -0.3055
     30 C         142.3793  134.4219  153.7443 C.3     1  UNL1        0.0910
     31 C         142.0026  135.8471  154.0218 C.3     1  UNL1        0.0229
     32 C         143.1164  132.0820  154.5998 C.2     1  UNL1        0.0609
     33 S         142.9732  131.5245  153.2146 S.2     1  UNL1       -0.0395
     34 C         143.6362  131.2144  155.7075 C.3     1  UNL1        0.0426
     35 C         145.0589  131.3513  156.1627 C.3     1  UNL1        0.0066
     36 C         142.7333  130.2099  156.3599 C.3     1  UNL1        0.0066
@<TRIPOS>BOND
     1    21    22    1
     2    22    11    1
     3    11    12   ar
     4    12    13   ar
     5    13    14    1
     6    13    15   ar
     7    15    16    1
     8    15    17   ar
     9    17    18   ar
    10    18     7    1
    11     7     8    2
    12     7     9   am
    13     1     9    1
    14     1     2    1
    15     2     3    1
    16     3     4    1
    17     4    25    1
    18    25    26    1
    19    26    27    1
    20    27    28    1
    21    28    29    1
    22    29    32    1
    23    32    33    2
    24    32    34    1
    25    34    35    1
    26    34    36    1
    27    29    30    1
    28    30    31    1
    29     4     5    1
    30     5     6    1
    31     6    23    1
    32    23    24    1
    33    18    11   ar
    34     6     1    1
    35    31    26    1
    36    14    19    1
    37    14    20    1
    38     9    10    1
