@<TRIPOS>MOLECULE
*****
 37 41 0 0 0
SMALL
GASTEIGER

@<TRIPOS>ATOM
      1 C         140.8852  138.5749  159.9831 C.2     1  UNL1        0.3003
      2 N         141.9391  138.9671  160.9758 N.2     1  UNL1       -0.0273
      3 C         143.3584  139.1546  160.5281 C.cat   1  UNL1        0.4670
      4 N         143.7238  138.9498  159.0878 N.2     1  UNL1        0.0298
      5 C         142.6699  138.5576  158.0951 C.2     1  UNL1        0.3719
      6 N         142.7305  138.2877  156.6208 N.2     1  UNL1       -0.0339
      7 C         141.3486  137.9335  156.1574 C.2     1  UNL1        0.2323
      8 C         140.4339  137.9844  157.3452 C.2     1  UNL1        0.0474
      9 C         141.2506  138.3701  158.5428 C.3     1  UNL1        0.2316
     10 N         144.4124  139.5469  161.5209 N.pl3   1  UNL1       -0.1922
     11 H         145.3542  139.6079  161.2406 H       1  UNL1        0.2523
     12 C         144.0313  139.8460  162.9405 C.ar    1  UNL1        0.1095
     13 C         143.4484  138.7669  163.8039 C.ar    1  UNL1        0.0325
     14 C         143.0673  139.0661  165.2235 C.ar    1  UNL1        0.0172
     15 C         143.2693  140.4444  165.7797 C.ar    1  UNL1        0.0481
     16 C         143.8522  141.5236  164.9163 C.ar    1  UNL1        0.0172
     17 C         144.2332  141.2244  163.4967 C.ar    1  UNL1        0.0325
     18 N         142.8883  140.7437  167.1994 N.pl3   1  UNL1       -0.3046
     19 C         142.8402  142.1640  167.6794 C.3     1  UNL1        0.1081
     20 C         142.4592  142.4633  169.0990 C.3     1  UNL1        0.0938
     21 N         142.1263  141.3424  170.0385 N.3     1  UNL1       -0.2686
     22 C         141.7453  141.6418  171.4581 C.3     1  UNL1        0.0897
     23 C         142.1743  139.9221  169.5584 C.3     1  UNL1        0.0938
     24 C         142.5553  139.6227  168.1388 C.3     1  UNL1        0.1081
     25 O         139.4659  138.3874  160.4308 O.3     1  UNL1       -0.4266
     26 C         138.1125  140.2493  163.6637 C.ar    1  UNL1        0.0536
     27 C         138.3307  139.1962  164.7095 C.ar    1  UNL1        0.0149
     28 C         138.9272  137.8737  164.3290 C.ar    1  UNL1        0.0044
     29 C         139.3057  137.6040  162.9027 C.ar    1  UNL1        0.0377
     30 C         139.0875  138.6570  161.8570 C.ar    1  UNL1        0.1495
     31 C         138.4909  139.9797  162.2375 C.ar    1  UNL1        0.0522
     32 C         138.4035  142.7635  164.2505 C.2     1  UNL1        0.2496
     33 O         139.8875  142.6324  164.0762 O.2     1  UNL1       -0.2698
     34 N         137.5160  141.5719  164.0442 N.am    1  UNL1       -0.2803
     35 H         136.5419  141.6580  164.1585 H       1  UNL1        0.1552
     36 C         138.5115  144.9712  165.6159 C.2     1  UNL1        0.0048
     37 C         137.8069  144.0861  164.6310 C.2     1  UNL1        0.0580
@<TRIPOS>BOND
     1    36    37    2
     2    37    32    1
     3    32    33    2
     4    32    34   am
     5    34    26    1
     6    26    27   ar
     7    27    28   ar
     8    28    29   ar
     9    29    30   ar
    10    30    25    1
    11    25     1    1
    12     1     2    2
    13     2     3    1
    14     3    10    1
    15    10    12    1
    16    12    13   ar
    17    13    14   ar
    18    14    15   ar
    19    15    18    1
    20    18    19    1
    21    19    20    1
    22    20    21    1
    23    21    22    1
    24    21    23    1
    25    23    24    1
    26    15    16   ar
    27    16    17   ar
    28     3     4    2
    29     4     5    1
    30     5     6    2
    31     6     7    1
    32     7     8    2
    33     8     9    1
    34    30    31   ar
    35    31    26   ar
    36     9     1    1
    37    17    12   ar
    38     9     5    1
    39    24    18    1
    40    34    35    1
    41    10    11    1
@<TRIPOS>MOLECULE
*****
 37 41 0 0 0
SMALL
GASTEIGER

@<TRIPOS>ATOM
      1 C         141.7717  140.7711  167.6917 C.2     1  UNL1        0.3003
      2 N         140.7648  140.0468  166.8481 N.2     1  UNL1       -0.0273
      3 C         139.4733  139.5834  167.4539 C.cat   1  UNL1        0.4670
      4 N         139.1886  139.8442  168.9034 N.2     1  UNL1        0.0298
      5 C         140.1954  140.5685  169.7470 C.2     1  UNL1        0.3719
      6 N         140.1927  140.9662  171.1933 N.2     1  UNL1       -0.0339
      7 C         141.4827  141.6754  171.4813 C.2     1  UNL1        0.2323
      8 C         142.2826  141.7161  170.2130 C.2     1  UNL1        0.0474
      9 C         141.4870  141.0319  169.1411 C.3     1  UNL1        0.2316
     10 N         138.4665  138.8590  166.6103 N.pl3   1  UNL1       -0.1922
     11 H         137.7642  138.3177  167.0380 H       1  UNL1        0.2523
     12 C         138.5296  138.9596  165.1150 C.ar    1  UNL1        0.1095
     13 C         138.9939  137.7867  164.3033 C.ar    1  UNL1        0.0325
     14 C         139.0571  137.8872  162.8080 C.ar    1  UNL1        0.0172
     15 C         138.6560  139.1606  162.1244 C.ar    1  UNL1        0.0481
     16 C         138.1918  140.3336  162.9360 C.ar    1  UNL1        0.0172
     17 C         138.1286  140.2330  164.4313 C.ar    1  UNL1        0.0325
     18 N         138.7192  139.2613  160.6290 N.pl3   1  UNL1       -0.3046
     19 C         139.6323  138.3578  159.8545 C.3     1  UNL1        0.1081
     20 C         139.6955  138.4583  158.3592 C.3     1  UNL1        0.0938
     21 N         138.8456  139.4624  157.6385 N.3     1  UNL1       -0.2686
     22 C         138.9088  139.5630  156.1432 C.3     1  UNL1        0.0897
     23 C         137.9325  140.3659  158.4131 C.3     1  UNL1        0.0938
     24 C         137.8692  140.2654  159.9084 C.3     1  UNL1        0.1081
     25 O         143.0633  141.2346  167.0858 O.3     1  UNL1       -0.4266
     26 C         141.8618  143.5965  164.1316 C.ar    1  UNL1        0.0536
     27 C         143.0520  144.4983  163.9878 C.ar    1  UNL1        0.0149
     28 C         144.2458  144.3121  164.8766 C.ar    1  UNL1        0.0044
     29 C         144.2496  143.2241  165.9093 C.ar    1  UNL1        0.0377
     30 C         143.0595  142.3225  166.0531 C.ar    1  UNL1        0.1495
     31 C         141.8656  142.5086  165.1643 C.ar    1  UNL1        0.0522
     32 C         139.4012  144.3616  163.7997 C.2     1  UNL1        0.2496
     33 O         139.3283  144.7542  165.2456 O.2     1  UNL1       -0.2698
     34 N         140.6680  143.7828  163.2427 N.am    1  UNL1       -0.2803
     35 H         140.7159  143.5251  162.2938 H       1  UNL1        0.1552
     36 C         137.8961  143.5333  161.8508 C.2     1  UNL1        0.0048
     37 C         138.2074  144.5478  162.9109 C.2     1  UNL1        0.0580
@<TRIPOS>BOND
     1    36    37    2
     2    37    32    1
     3    32    33    2
     4    32    34   am
     5    34    26    1
     6    26    27   ar
     7    27    28   ar
     8    28    29   ar
     9    29    30   ar
    10    30    25    1
    11    25     1    1
    12     1     2    2
    13     2     3    1
    14     3    10    1
    15    10    12    1
    16    12    13   ar
    17    13    14   ar
    18    14    15   ar
    19    15    18    1
    20    18    19    1
    21    19    20    1
    22    20    21    1
    23    21    22    1
    24    21    23    1
    25    23    24    1
    26    15    16   ar
    27    16    17   ar
    28     3     4    2
    29     4     5    1
    30     5     6    2
    31     6     7    1
    32     7     8    2
    33     8     9    1
    34    30    31   ar
    35    31    26   ar
    36     9     1    1
    37    17    12   ar
    38     9     5    1
    39    24    18    1
    40    34    35    1
    41    10    11    1
@<TRIPOS>MOLECULE
*****
 37 41 0 0 0
SMALL
GASTEIGER

@<TRIPOS>ATOM
      1 C         138.6157  142.5554  159.7479 C.2     1  UNL1        0.3003
      2 N         138.3593  141.5585  160.8390 N.2     1  UNL1       -0.0273
      3 C         137.7525  140.2267  160.5106 C.cat   1  UNL1        0.4670
      4 N         137.4020  139.8916  159.0911 N.2     1  UNL1        0.0298
      5 C         137.6584  140.8885  158.0000 C.2     1  UNL1        0.3719
      6 N         137.4192  140.8403  156.5200 N.2     1  UNL1       -0.0339
      7 C         137.8782  142.1425  155.9337 C.2     1  UNL1        0.2323
      8 C         138.4011  142.9954  157.0513 C.2     1  UNL1        0.0474
      9 C         138.2652  142.2204  158.3284 C.3     1  UNL1        0.2316
     10 N         137.4961  139.2298  161.6018 N.pl3   1  UNL1       -0.1922
     11 H         136.8484  138.5018  161.4612 H       1  UNL1        0.2523
     12 C         138.2267  139.3420  162.9070 C.ar    1  UNL1        0.1095
     13 C         139.1974  138.2746  163.3174 C.ar    1  UNL1        0.0325
     14 C         139.9280  138.3868  164.6227 C.ar    1  UNL1        0.0172
     15 C         139.6878  139.5664  165.5176 C.ar    1  UNL1        0.0481
     16 C         138.7171  140.6338  165.1072 C.ar    1  UNL1        0.0172
     17 C         137.9865  140.5216  163.8019 C.ar    1  UNL1        0.0325
     18 N         140.4184  139.6788  166.8229 N.pl3   1  UNL1       -0.3046
     19 C         139.6618  139.9829  168.0819 C.3     1  UNL1        0.1081
     20 C         140.3923  140.0952  169.3872 C.3     1  UNL1        0.0938
     21 N         141.8792  139.9034  169.4334 N.3     1  UNL1       -0.2686
     22 C         142.6097  140.0157  170.7387 C.3     1  UNL1        0.0897
     23 C         142.6357  139.5993  168.1744 C.3     1  UNL1        0.0938
     24 C         141.9053  139.4870  166.8690 C.3     1  UNL1        0.1081
     25 O         139.2226  143.8873  160.0763 O.3     1  UNL1       -0.4266
     26 C         141.5739  144.2979  163.2468 C.ar    1  UNL1        0.0536
     27 C         140.5856  144.7652  164.2740 C.ar    1  UNL1        0.0149
     28 C         139.1431  144.9398  163.9020 C.ar    1  UNL1        0.0044
     29 C         138.6887  144.6471  162.5027 C.ar    1  UNL1        0.0377
     30 C         139.6769  144.1799  161.4755 C.ar    1  UNL1        0.1495
     31 C         141.1196  144.0053  161.8476 C.ar    1  UNL1        0.0522
     32 C         143.5230  142.7782  164.0478 C.2     1  UNL1        0.2496
     33 O         142.5868  141.6075  164.1045 O.2     1  UNL1       -0.2698
     34 N         143.0165  144.1234  163.6189 N.am    1  UNL1       -0.2803
     35 H         143.6310  144.8917  163.5816 H       1  UNL1        0.1552
     36 C         145.7723  141.5021  163.7987 C.2     1  UNL1        0.0048
     37 C         144.9656  142.6036  164.4198 C.2     1  UNL1        0.0580
@<TRIPOS>BOND
     1    36    37    2
     2    37    32    1
     3    32    33    2
     4    32    34   am
     5    34    26    1
     6    26    27   ar
     7    27    28   ar
     8    28    29   ar
     9    29    30   ar
    10    30    25    1
    11    25     1    1
    12     1     2    2
    13     2     3    1
    14     3    10    1
    15    10    12    1
    16    12    13   ar
    17    13    14   ar
    18    14    15   ar
    19    15    18    1
    20    18    19    1
    21    19    20    1
    22    20    21    1
    23    21    22    1
    24    21    23    1
    25    23    24    1
    26    15    16   ar
    27    16    17   ar
    28     3     4    2
    29     4     5    1
    30     5     6    2
    31     6     7    1
    32     7     8    2
    33     8     9    1
    34    30    31   ar
    35    31    26   ar
    36     9     1    1
    37    17    12   ar
    38     9     5    1
    39    24    18    1
    40    34    35    1
    41    10    11    1
@<TRIPOS>MOLECULE
*****
 37 41 0 0 0
SMALL
GASTEIGER

@<TRIPOS>ATOM
      1 C         141.3189  142.0400  167.4819 C.2     1  UNL1        0.3003
      2 N         142.0510  140.9770  166.7178 N.2     1  UNL1       -0.0273
      3 C         142.5499  139.7528  167.4265 C.cat   1  UNL1        0.4670
      4 N         142.3167  139.5916  168.8995 N.2     1  UNL1        0.0298
      5 C         141.5846  140.6546  169.6637 C.2     1  UNL1        0.3719
      6 N         141.2087  140.7715  171.1111 N.2     1  UNL1       -0.0339
      7 C         140.4775  142.0679  171.2968 C.2     1  UNL1        0.2323
      8 C         140.4014  142.7523  169.9642 C.2     1  UNL1        0.0474
      9 C         141.0857  141.8788  168.9549 C.3     1  UNL1        0.2316
     10 N         143.2821  138.6897  166.6623 N.pl3   1  UNL1       -0.1922
     11 H         143.7619  137.9785  167.1452 H       1  UNL1        0.2523
     12 C         143.2832  138.7104  165.1624 C.ar    1  UNL1        0.1095
     13 C         142.1642  138.0620  164.4026 C.ar    1  UNL1        0.0325
     14 C         142.1653  138.0826  162.9027 C.ar    1  UNL1        0.0172
     15 C         143.2854  138.7517  162.1627 C.ar    1  UNL1        0.0481
     16 C         144.4044  139.4002  162.9226 C.ar    1  UNL1        0.0172
     17 C         144.4033  139.3795  164.4224 C.ar    1  UNL1        0.0325
     18 N         143.2866  138.7724  160.6628 N.pl3   1  UNL1       -0.3046
     19 C         142.7778  137.5878  159.8961 C.3     1  UNL1        0.1081
     20 C         142.7790  137.6085  158.3962 C.3     1  UNL1        0.0938
     21 N         143.2889  138.8137  157.6632 N.3     1  UNL1       -0.2686
     22 C         143.2900  138.8343  156.1633 C.3     1  UNL1        0.0897
     23 C         143.7976  139.9983  158.4299 C.3     1  UNL1        0.0938
     24 C         143.7965  139.9777  159.9298 C.3     1  UNL1        0.1081
     25 O         140.8200  143.2642  166.7731 O.3     1  UNL1       -0.4266
     26 C         138.7916  141.7912  163.6965 C.ar    1  UNL1        0.0536
     27 C         137.7769  142.8749  163.4810 C.ar    1  UNL1        0.0149
     28 C         137.7766  144.0881  164.3629 C.ar    1  UNL1        0.0044
     29 C         138.7910  144.2180  165.4603 C.ar    1  UNL1        0.0377
     30 C         139.8056  143.1344  165.6757 C.ar    1  UNL1        0.1495
     31 C         139.8059  141.9210  164.7938 C.ar    1  UNL1        0.0522
     32 C         138.5240  139.2238  163.4017 C.2     1  UNL1        0.2496
     33 O         138.2560  139.0831  164.8709 O.2     1  UNL1       -0.2698
     34 N         138.7918  140.5779  162.8146 N.am    1  UNL1       -0.2803
     35 H         138.9678  140.6702  161.8503 H       1  UNL1        0.1552
     36 C         138.9255  138.1303  161.0795 C.2     1  UNL1        0.0048
     37 C         138.5243  138.0105  162.5198 C.2     1  UNL1        0.0580
@<TRIPOS>BOND
     1    36    37    2
     2    37    32    1
     3    32    33    2
     4    32    34   am
     5    34    26    1
     6    26    27   ar
     7    27    28   ar
     8    28    29   ar
     9    29    30   ar
    10    30    25    1
    11    25     1    1
    12     1     2    2
    13     2     3    1
    14     3    10    1
    15    10    12    1
    16    12    13   ar
    17    13    14   ar
    18    14    15   ar
    19    15    18    1
    20    18    19    1
    21    19    20    1
    22    20    21    1
    23    21    22    1
    24    21    23    1
    25    23    24    1
    26    15    16   ar
    27    16    17   ar
    28     3     4    2
    29     4     5    1
    30     5     6    2
    31     6     7    1
    32     7     8    2
    33     8     9    1
    34    30    31   ar
    35    31    26   ar
    36     9     1    1
    37    17    12   ar
    38     9     5    1
    39    24    18    1
    40    34    35    1
    41    10    11    1
@<TRIPOS>MOLECULE
*****
 37 41 0 0 0
SMALL
GASTEIGER

@<TRIPOS>ATOM
      1 C         141.7437  140.6905  167.5711 C.2     1  UNL1        0.3003
      2 N         140.6888  140.0502  166.7183 N.2     1  UNL1       -0.0273
      3 C         139.3912  139.6145  167.3315 C.cat   1  UNL1        0.4670
      4 N         139.1482  139.8192  168.7976 N.2     1  UNL1        0.0298
      5 C         140.2031  140.4596  169.6503 C.2     1  UNL1        0.3719
      6 N         140.2479  140.7890  171.1130 N.2     1  UNL1       -0.0339
      7 C         141.5734  141.4282  171.4037 C.2     1  UNL1        0.2323
      8 C         142.3477  141.4939  170.1207 C.2     1  UNL1        0.0474
      9 C         141.5009  140.8953  169.0370 C.3     1  UNL1        0.2316
     10 N         138.3362  138.9741  166.4787 N.pl3   1  UNL1       -0.1922
     11 H         137.5864  138.4952  166.9001 H       1  UNL1        0.2523
     12 C         138.4239  139.0635  164.9840 C.ar    1  UNL1        0.1095
     13 C         138.0322  140.3311  164.2842 C.ar    1  UNL1        0.0325
     14 C         138.1198  140.4205  162.7894 C.ar    1  UNL1        0.0172
     15 C         138.5991  139.2422  161.9944 C.ar    1  UNL1        0.0481
     16 C         138.9908  137.9746  162.6942 C.ar    1  UNL1        0.0172
     17 C         138.9032  137.8853  164.1890 C.ar    1  UNL1        0.0325
     18 N         138.6868  139.3315  160.4996 N.pl3   1  UNL1       -0.3046
     19 C         139.6191  138.4284  159.7478 C.3     1  UNL1        0.1081
     20 C         139.7068  138.5176  158.2530 C.3     1  UNL1        0.0938
     21 N         138.8622  139.5099  157.5101 N.3     1  UNL1       -0.2686
     22 C         138.9500  139.5991  156.0154 C.3     1  UNL1        0.0897
     23 C         137.9300  140.4130  158.2620 C.3     1  UNL1        0.0938
     24 C         137.8422  140.3238  159.7567 C.3     1  UNL1        0.1081
     25 O         143.0415  141.1262  166.9578 O.3     1  UNL1       -0.4266
     26 C         142.4223  142.0690  163.1529 C.ar    1  UNL1        0.0536
     27 C         143.4851  141.2505  162.4815 C.ar    1  UNL1        0.0149
     28 C         144.4000  140.3907  163.3022 C.ar    1  UNL1        0.0044
     29 C         144.2521  140.3492  164.7944 C.ar    1  UNL1        0.0377
     30 C         143.1893  141.1676  165.4657 C.ar    1  UNL1        0.1495
     31 C         142.2744  142.0275  164.6450 C.ar    1  UNL1        0.0522
     32 C         141.9897  144.2481  161.8060 C.2     1  UNL1        0.2496
     33 O         143.3868  144.7076  162.1006 O.2     1  UNL1       -0.2698
     34 N         141.5074  142.9288  162.3321 N.am    1  UNL1       -0.2803
     35 H         140.5904  142.6273  162.1387 H       1  UNL1        0.1552
     36 C         140.0279  145.9451  161.6584 C.2     1  UNL1        0.0048
     37 C         141.0748  145.1080  160.9852 C.2     1  UNL1        0.0580
@<TRIPOS>BOND
     1    36    37    2
     2    37    32    1
     3    32    33    2
     4    32    34   am
     5    34    26    1
     6    26    27   ar
     7    27    28   ar
     8    28    29   ar
     9    29    30   ar
    10    30    25    1
    11    25     1    1
    12     1     2    2
    13     2     3    1
    14     3    10    1
    15    10    12    1
    16    12    13   ar
    17    13    14   ar
    18    14    15   ar
    19    15    18    1
    20    18    19    1
    21    19    20    1
    22    20    21    1
    23    21    22    1
    24    21    23    1
    25    23    24    1
    26    15    16   ar
    27    16    17   ar
    28     3     4    2
    29     4     5    1
    30     5     6    2
    31     6     7    1
    32     7     8    2
    33     8     9    1
    34    30    31   ar
    35    31    26   ar
    36     9     1    1
    37    17    12   ar
    38     9     5    1
    39    24    18    1
    40    34    35    1
    41    10    11    1
@<TRIPOS>MOLECULE
*****
 37 41 0 0 0
SMALL
GASTEIGER

@<TRIPOS>ATOM
      1 C         142.7079  140.0469  166.8129 C.2     1  UNL1        0.3003
      2 N         143.2773  141.1062  165.9165 N.2     1  UNL1       -0.0273
      3 C         143.6916  142.4294  166.4885 C.cat   1  UNL1        0.4670
      4 N         143.5366  142.6935  167.9570 N.2     1  UNL1        0.0298
      5 C         142.9672  141.6341  168.8533 C.2     1  UNL1        0.3719
      6 N         142.6975  141.6063  170.3286 N.2     1  UNL1       -0.0339
      7 C         142.1164  140.2658  170.6684 C.2     1  UNL1        0.2323
      8 C         142.0271  139.4651  169.4031 C.2     1  UNL1        0.0474
      9 C         142.5529  140.3108  168.2813 C.3     1  UNL1        0.2316
     10 N         144.2610  143.4889  165.5920 N.pl3   1  UNL1       -0.1922
     11 H         145.0117  144.0451  165.9025 H       1  UNL1        0.2523
     12 C         143.6868  143.7007  164.2226 C.ar    1  UNL1        0.1095
     13 C         144.3205  143.0417  163.0334 C.ar    1  UNL1        0.0325
     14 C         143.7463  143.2535  161.6639 C.ar    1  UNL1        0.0172
     15 C         142.5383  144.1243  161.4837 C.ar    1  UNL1        0.0481
     16 C         141.9045  144.7832  162.6729 C.ar    1  UNL1        0.0172
     17 C         142.4788  144.5714  164.0423 C.ar    1  UNL1        0.0325
     18 N         141.9639  144.3361  160.1142 N.pl3   1  UNL1       -0.3046
     19 C         142.5613  143.6304  158.9331 C.3     1  UNL1        0.1081
     20 C         141.9870  143.8422  157.5636 C.3     1  UNL1        0.0938
     21 N         140.8154  144.7597  157.3754 N.3     1  UNL1       -0.2686
     22 C         140.2411  144.9715  156.0060 C.3     1  UNL1        0.0897
     23 C         140.2180  145.4654  158.5566 C.3     1  UNL1        0.0938
     24 C         140.7923  145.2536  159.9260 C.3     1  UNL1        0.1081
     25 O         142.2936  138.7235  166.2409 O.3     1  UNL1       -0.4266
     26 C         138.9535  139.7169  164.3419 C.ar    1  UNL1        0.0536
     27 C         138.6782  138.4575  163.5749 C.ar    1  UNL1        0.0149
     28 C         139.6080  137.2869  163.6965 C.ar    1  UNL1        0.0044
     29 C         140.8133  137.3755  164.5852 C.ar    1  UNL1        0.0377
     30 C         141.0885  138.6349  165.3522 C.ar    1  UNL1        0.1495
     31 C         140.1586  139.8056  165.2305 C.ar    1  UNL1        0.0522
     32 C         138.4164  142.0744  163.3913 C.2     1  UNL1        0.2496
     33 O         139.7391  142.0906  162.6841 O.2     1  UNL1       -0.2698
     34 N         138.0236  140.8876  164.2201 N.am    1  UNL1       -0.2803
     35 H         137.1554  140.8770  164.6843 H       1  UNL1        0.1552
     36 C         138.0317  144.6064  162.9538 C.2     1  UNL1        0.0048
     37 C         137.4865  143.2451  163.2695 C.2     1  UNL1        0.0580
@<TRIPOS>BOND
     1    36    37    2
     2    37    32    1
     3    32    33    2
     4    32    34   am
     5    34    26    1
     6    26    27   ar
     7    27    28   ar
     8    28    29   ar
     9    29    30   ar
    10    30    25    1
    11    25     1    1
    12     1     2    2
    13     2     3    1
    14     3    10    1
    15    10    12    1
    16    12    13   ar
    17    13    14   ar
    18    14    15   ar
    19    15    18    1
    20    18    19    1
    21    19    20    1
    22    20    21    1
    23    21    22    1
    24    21    23    1
    25    23    24    1
    26    15    16   ar
    27    16    17   ar
    28     3     4    2
    29     4     5    1
    30     5     6    2
    31     6     7    1
    32     7     8    2
    33     8     9    1
    34    30    31   ar
    35    31    26   ar
    36     9     1    1
    37    17    12   ar
    38     9     5    1
    39    24    18    1
    40    34    35    1
    41    10    11    1
@<TRIPOS>MOLECULE
*****
 37 41 0 0 0
SMALL
GASTEIGER

@<TRIPOS>ATOM
      1 C         140.2668  139.9651  167.2036 C.2     1  UNL1        0.3003
      2 N         141.3215  139.4612  166.2637 N.2     1  UNL1       -0.0273
      3 C         142.6865  139.1184  166.7823 C.cat   1  UNL1        0.4670
      4 N         142.9969  139.2797  168.2410 N.2     1  UNL1        0.0298
      5 C         141.9422  139.7836  169.1810 C.2     1  UNL1        0.3719
      6 N         141.9554  140.0429  170.6583 N.2     1  UNL1       -0.0339
      7 C         140.5984  140.5460  171.0527 C.2     1  UNL1        0.2323
      8 C         139.7465  140.5975  169.8191 C.2     1  UNL1        0.0474
      9 C         140.5771  140.1264  168.6623 C.3     1  UNL1        0.2316
     10 N         143.7413  138.6144  165.8423 N.pl3   1  UNL1       -0.1922
     11 H         144.3895  137.9388  166.1464 H       1  UNL1        0.2523
     12 C         143.8084  139.1400  164.4390 C.ar    1  UNL1        0.1095
     13 C         144.7114  140.2922  164.1120 C.ar    1  UNL1        0.0325
     14 C         144.7785  140.8177  162.7086 C.ar    1  UNL1        0.0172
     15 C         143.9426  140.1910  161.6323 C.ar    1  UNL1        0.0481
     16 C         143.0395  139.0388  161.9593 C.ar    1  UNL1        0.0172
     17 C         142.9725  138.5133  163.3627 C.ar    1  UNL1        0.0325
     18 N         144.0096  140.7165  160.2289 N.pl3   1  UNL1       -0.3046
     19 C         143.6687  139.8202  159.0755 C.3     1  UNL1        0.1081
     20 C         143.7357  140.3456  157.6721 C.3     1  UNL1        0.0938
     21 N         144.1436  141.7672  157.4222 N.3     1  UNL1       -0.2686
     22 C         144.2105  142.2926  156.0189 C.3     1  UNL1        0.0897
     23 C         144.4844  142.6635  158.5757 C.3     1  UNL1        0.0938
     24 C         144.4174  142.1382  159.9791 C.3     1  UNL1        0.1081
     25 O         138.9017  140.3079  166.6849 O.3     1  UNL1       -0.4266
     26 C         138.6954  142.0675  163.1338 C.ar    1  UNL1        0.0536
     27 C         138.2591  140.9189  162.2732 C.ar    1  UNL1        0.0149
     28 C         138.0369  139.5668  162.8832 C.ar    1  UNL1        0.0044
     29 C         138.2511  139.3630  164.3539 C.ar    1  UNL1        0.0377
     30 C         138.6875  140.5116  165.2143 C.ar    1  UNL1        0.1495
     31 C         138.9096  141.8638  164.6043 C.ar    1  UNL1        0.0522
     32 C         140.1982  143.7151  161.8007 C.2     1  UNL1        0.2496
     33 O         141.2567  142.6583  161.6878 O.2     1  UNL1       -0.2698
     34 N         138.9176  143.4197  162.5237 N.am    1  UNL1       -0.2803
     35 H         138.2229  144.1133  162.5978 H       1  UNL1        0.1552
     36 C         139.7961  146.2819  161.8112 C.2     1  UNL1        0.0048
     37 C         140.4204  145.0673  161.1906 C.2     1  UNL1        0.0580
@<TRIPOS>BOND
     1    36    37    2
     2    37    32    1
     3    32    33    2
     4    32    34   am
     5    34    26    1
     6    26    27   ar
     7    27    28   ar
     8    28    29   ar
     9    29    30   ar
    10    30    25    1
    11    25     1    1
    12     1     2    2
    13     2     3    1
    14     3    10    1
    15    10    12    1
    16    12    13   ar
    17    13    14   ar
    18    14    15   ar
    19    15    18    1
    20    18    19    1
    21    19    20    1
    22    20    21    1
    23    21    22    1
    24    21    23    1
    25    23    24    1
    26    15    16   ar
    27    16    17   ar
    28     3     4    2
    29     4     5    1
    30     5     6    2
    31     6     7    1
    32     7     8    2
    33     8     9    1
    34    30    31   ar
    35    31    26   ar
    36     9     1    1
    37    17    12   ar
    38     9     5    1
    39    24    18    1
    40    34    35    1
    41    10    11    1
@<TRIPOS>MOLECULE
*****
 37 41 0 0 0
SMALL
GASTEIGER

@<TRIPOS>ATOM
      1 C         142.3390  144.1339  159.7736 C.2     1  UNL1        0.3003
      2 N         143.1852  143.6917  160.9304 N.2     1  UNL1       -0.0273
      3 C         144.4032  142.8499  160.6902 C.cat   1  UNL1        0.4670
      4 N         144.7750  142.4502  159.2930 N.2     1  UNL1        0.0298
      5 C         143.9287  142.8924  158.1361 C.2     1  UNL1        0.3719
      6 N         144.0446  142.6555  156.6595 N.2     1  UNL1       -0.0339
      7 C         142.8982  143.3510  155.9872 C.2     1  UNL1        0.2323
      8 C         142.0738  144.0177  157.0483 C.2     1  UNL1        0.0474
      9 C         142.7107  143.7342  158.3764 C.3     1  UNL1        0.2316
     10 N         145.2495  142.4077  161.8471 N.pl3   1  UNL1       -0.1922
     11 H         146.2167  142.2704  161.7253 H       1  UNL1        0.2523
     12 C         144.6220  142.1746  163.1895 C.ar    1  UNL1        0.1095
     13 C         144.6065  143.2729  164.2110 C.ar    1  UNL1        0.0325
     14 C         143.9790  143.0398  165.5534 C.ar    1  UNL1        0.0172
     15 C         143.3670  141.7085  165.8742 C.ar    1  UNL1        0.0481
     16 C         143.3825  140.6102  164.8527 C.ar    1  UNL1        0.0172
     17 C         144.0100  140.8433  163.5103 C.ar    1  UNL1        0.0325
     18 N         142.7395  141.4753  167.2166 N.pl3   1  UNL1       -0.3046
     19 C         143.1588  142.3039  168.3945 C.3     1  UNL1        0.1081
     20 C         142.5314  142.0708  169.7369 C.3     1  UNL1        0.0938
     21 N         141.4846  141.0091  169.9012 N.3     1  UNL1       -0.2686
     22 C         140.8571  140.7760  171.2436 C.3     1  UNL1        0.0897
     23 C         141.0652  140.1805  168.7233 C.3     1  UNL1        0.0938
     24 C         141.6927  140.4136  167.3809 C.3     1  UNL1        0.1081
     25 O         141.1210  144.9758  160.0139 O.3     1  UNL1       -0.4266
     26 C         138.4583  142.6325  161.7940 C.ar    1  UNL1        0.0536
     27 C         137.9287  143.5567  162.8503 C.ar    1  UNL1        0.0149
     28 C         138.4632  144.9537  162.9611 C.ar    1  UNL1        0.0044
     29 C         139.5274  145.4269  162.0156 C.ar    1  UNL1        0.0377
     30 C         140.0569  144.5028  160.9594 C.ar    1  UNL1        0.1495
     31 C         139.5224  143.1056  160.8485 C.ar    1  UNL1        0.0522
     32 C         138.6145  140.1095  162.3942 C.2     1  UNL1        0.2496
     33 O         139.8397  140.3808  163.2158 O.2     1  UNL1       -0.2698
     34 N         137.9238  141.2354  161.6833 N.am    1  UNL1       -0.2803
     35 H         137.1196  141.0573  161.1440 H       1  UNL1        0.1552
     36 C         138.7757  137.5852  162.9872 C.2     1  UNL1        0.0048
     37 C         138.0799  138.7124  162.2834 C.2     1  UNL1        0.0580
@<TRIPOS>BOND
     1    36    37    2
     2    37    32    1
     3    32    33    2
     4    32    34   am
     5    34    26    1
     6    26    27   ar
     7    27    28   ar
     8    28    29   ar
     9    29    30   ar
    10    30    25    1
    11    25     1    1
    12     1     2    2
    13     2     3    1
    14     3    10    1
    15    10    12    1
    16    12    13   ar
    17    13    14   ar
    18    14    15   ar
    19    15    18    1
    20    18    19    1
    21    19    20    1
    22    20    21    1
    23    21    22    1
    24    21    23    1
    25    23    24    1
    26    15    16   ar
    27    16    17   ar
    28     3     4    2
    29     4     5    1
    30     5     6    2
    31     6     7    1
    32     7     8    2
    33     8     9    1
    34    30    31   ar
    35    31    26   ar
    36     9     1    1
    37    17    12   ar
    38     9     5    1
    39    24    18    1
    40    34    35    1
    41    10    11    1
@<TRIPOS>MOLECULE
*****
 37 41 0 0 0
SMALL
GASTEIGER

@<TRIPOS>ATOM
      1 C         140.4724  138.9223  159.5488 C.2     1  UNL1        0.3003
      2 N         141.5499  139.4005  160.4764 N.2     1  UNL1       -0.0273
      3 C         142.9915  139.2628  160.0856 C.cat   1  UNL1        0.4670
      4 N         143.3557  138.6470  158.7672 N.2     1  UNL1        0.0298
      5 C         142.2783  138.1688  157.8397 C.2     1  UNL1        0.3719
      6 N         142.3322  137.5256  156.4857 N.2     1  UNL1       -0.0339
      7 C         140.9238  137.2657  156.0396 C.2     1  UNL1        0.2323
      8 C         139.9995  137.7483  157.1179 C.2     1  UNL1        0.0474
      9 C         140.8366  138.3064  158.2304 C.3     1  UNL1        0.2316
     10 N         144.0690  139.7410  161.0133 N.pl3   1  UNL1       -0.1922
     11 H         144.9789  139.8975  160.6717 H       1  UNL1        0.2523
     12 C         143.7599  139.9809  162.4614 C.ar    1  UNL1        0.1095
     13 C         143.5151  141.3760  162.9550 C.ar    1  UNL1        0.0325
     14 C         143.2061  141.6159  164.4031 C.ar    1  UNL1        0.0172
     15 C         143.1419  140.4606  165.3576 C.ar    1  UNL1        0.0481
     16 C         143.3867  139.0655  164.8640 C.ar    1  UNL1        0.0172
     17 C         143.6957  138.8256  163.4159 C.ar    1  UNL1        0.0325
     18 N         142.8328  140.7004  166.8057 N.pl3   1  UNL1       -0.3046
     19 C         142.8277  142.0981  167.3500 C.3     1  UNL1        0.1081
     20 C         142.5186  142.3380  168.7981 C.3     1  UNL1        0.0938
     21 N         142.2148  141.1801  169.7019 N.3     1  UNL1       -0.2686
     22 C         141.9058  141.4199  171.1500 C.3     1  UNL1        0.0897
     23 C         142.2200  139.7823  169.1576 C.3     1  UNL1        0.0938
     24 C         142.5290  139.5424  167.7095 C.3     1  UNL1        0.1081
     25 O         139.0308  139.0599  159.9396 O.3     1  UNL1       -0.4266
     26 C         137.9169  140.7255  163.3652 C.ar    1  UNL1        0.0536
     27 C         137.8041  142.1646  162.9572 C.ar    1  UNL1        0.0149
     28 C         138.1001  142.5687  161.5434 C.ar    1  UNL1        0.0044
     29 C         138.5091  141.5338  160.5374 C.ar    1  UNL1        0.0377
     30 C         138.6219  140.0948  160.9455 C.ar    1  UNL1        0.1495
     31 C         138.3258  139.6906  162.3593 C.ar    1  UNL1        0.0522
     32 C         138.6336  139.5415  165.5639 C.2     1  UNL1        0.2496
     33 O         139.9425  139.1657  164.9349 O.2     1  UNL1       -0.2698
     34 N         137.6209  140.3214  164.7791 N.am    1  UNL1       -0.2803
     35 H         136.7618  140.5680  165.1919 H       1  UNL1        0.1552
     36 C         137.3345  138.0570  167.2547 C.2     1  UNL1        0.0048
     37 C         138.3376  139.1373  166.9778 C.2     1  UNL1        0.0580
@<TRIPOS>BOND
     1    36    37    2
     2    37    32    1
     3    32    33    2
     4    32    34   am
     5    34    26    1
     6    26    27   ar
     7    27    28   ar
     8    28    29   ar
     9    29    30   ar
    10    30    25    1
    11    25     1    1
    12     1     2    2
    13     2     3    1
    14     3    10    1
    15    10    12    1
    16    12    13   ar
    17    13    14   ar
    18    14    15   ar
    19    15    18    1
    20    18    19    1
    21    19    20    1
    22    20    21    1
    23    21    22    1
    24    21    23    1
    25    23    24    1
    26    15    16   ar
    27    16    17   ar
    28     3     4    2
    29     4     5    1
    30     5     6    2
    31     6     7    1
    32     7     8    2
    33     8     9    1
    34    30    31   ar
    35    31    26   ar
    36     9     1    1
    37    17    12   ar
    38     9     5    1
    39    24    18    1
    40    34    35    1
    41    10    11    1
