@<TRIPOS>MOLECULE
*****
 25 27 0 0 0
SMALL
GASTEIGER

@<TRIPOS>ATOM
      1 C         139.9538  140.9694  165.7261 C.3     1  UNL1        0.0825
      2 C         140.9944  140.2630  164.9086 C.3     1  UNL1        0.0375
      3 C         141.0817  140.5086  163.4314 C.3     1  UNL1        0.0738
      4 N         140.1285  141.4604  162.7716 N.3     1  UNL1       -0.2723
      5 C         139.0879  142.1668  163.5891 C.3     1  UNL1        0.0738
      6 C         139.0005  141.9213  165.0662 C.3     1  UNL1        0.0375
      7 C         138.8615  139.7502  167.7435 C.2     1  UNL1        0.2293
      8 O         138.7742  139.5047  169.2208 O.2     1  UNL1       -0.2745
      9 N         139.8664  140.7239  167.2032 N.am    1  UNL1       -0.2602
     10 C         140.7840  141.4523  168.1401 C.ar    1  UNL1        0.0537
     11 C         140.3023  142.6762  168.8612 C.ar    1  UNL1        0.0149
     12 C         141.2198  143.4044  169.7980 C.ar    1  UNL1        0.0013
     13 C         142.6190  142.9088  170.0139 C.ar    1  UNL1        0.0001
     14 C         143.1007  141.6849  169.2928 C.ar    1  UNL1        0.0013
     15 C         142.1831  140.9566  168.3560 C.ar    1  UNL1        0.0149
     16 C         137.2644  137.7609  167.2518 C.3     1  UNL1        0.0101
     17 C         137.9440  139.0218  166.8067 C.3     1  UNL1        0.0856
     18 C         140.2159  141.7059  161.2945 C.3     1  UNL1        0.0768
     19 C         141.1003  142.7963  160.7664 C.3     1  UNL1        0.0437
     20 C         141.9679  143.5796  161.7065 C.ar    1  UNL1       -0.0208
     21 C         143.4448  143.3219  161.7550 C.ar    1  UNL1       -0.0042
     22 C         144.3124  144.1052  162.6950 C.ar    1  UNL1       -0.0003
     23 C         143.7031  145.1462  163.5866 C.ar    1  UNL1       -0.0000
     24 C         142.2262  145.4039  163.5382 C.ar    1  UNL1       -0.0003
     25 C         141.3586  144.6206  162.5981 C.ar    1  UNL1       -0.0042
@<TRIPOS>BOND
     1    16    17    1
     2    17     7    1
     3     7     8    2
     4     7     9   am
     5     9    10    1
     6    10    11   ar
     7    11    12   ar
     8    12    13   ar
     9    13    14   ar
    10    14    15   ar
    11     9     1    1
    12     1     2    1
    13     2     3    1
    14     3     4    1
    15     4    18    1
    16    18    19    1
    17    19    20    1
    18    20    21   ar
    19    21    22   ar
    20    22    23   ar
    21    23    24   ar
    22    24    25   ar
    23     4     5    1
    24     5     6    1
    25    15    10   ar
    26     6     1    1
    27    25    20   ar
@<TRIPOS>MOLECULE
*****
 25 27 0 0 0
SMALL
GASTEIGER

@<TRIPOS>ATOM
      1 C         140.6757  140.0214  165.6924 C.3     1  UNL1        0.0825
      2 C         139.3449  139.3485  165.5305 C.3     1  UNL1        0.0375
      3 C         138.6771  139.3205  164.1876 C.3     1  UNL1        0.0738
      4 N         139.3400  139.9654  163.0067 N.3     1  UNL1       -0.2723
      5 C         140.6708  140.6383  163.1686 C.3     1  UNL1        0.0738
      6 C         141.3386  140.6664  164.5114 C.3     1  UNL1        0.0375
      7 C         142.5640  139.2135  167.2834 C.2     1  UNL1        0.2293
      8 O         143.2319  139.2415  168.6263 O.2     1  UNL1       -0.2745
      9 N         141.3435  140.0494  167.0352 N.am    1  UNL1       -0.2602
     10 C         140.7909  140.9134  168.1298 C.ar    1  UNL1        0.0537
     11 C         139.8343  140.3358  169.1305 C.ar    1  UNL1        0.0149
     12 C         139.2817  141.1998  170.2251 C.ar    1  UNL1        0.0013
     13 C         139.6857  142.6413  170.3190 C.ar    1  UNL1        0.0001
     14 C         140.6423  143.2189  169.3184 C.ar    1  UNL1        0.0013
     15 C         141.1949  142.3549  168.2238 C.ar    1  UNL1        0.0149
     16 C         144.3105  138.8059  165.4036 C.3     1  UNL1        0.0101
     17 C         143.1167  138.3496  166.1888 C.3     1  UNL1        0.0856
     18 C         138.6721  139.9374  161.6639 C.3     1  UNL1        0.0768
     19 C         137.9407  141.1480  161.1647 C.3     1  UNL1        0.0437
     20 C         138.3484  142.5150  161.6286 C.ar    1  UNL1       -0.0208
     21 C         139.4203  143.2668  160.8966 C.ar    1  UNL1       -0.0042
     22 C         139.8280  144.6336  161.3605 C.ar    1  UNL1       -0.0003
     23 C         139.1639  145.2488  162.5565 C.ar    1  UNL1       -0.0000
     24 C         138.0920  144.4970  163.2886 C.ar    1  UNL1       -0.0003
     25 C         137.6843  143.1301  162.8247 C.ar    1  UNL1       -0.0042
@<TRIPOS>BOND
     1    16    17    1
     2    17     7    1
     3     7     8    2
     4     7     9   am
     5     9    10    1
     6    10    11   ar
     7    11    12   ar
     8    12    13   ar
     9    13    14   ar
    10    14    15   ar
    11     9     1    1
    12     1     2    1
    13     2     3    1
    14     3     4    1
    15     4    18    1
    16    18    19    1
    17    19    20    1
    18    20    21   ar
    19    21    22   ar
    20    22    23   ar
    21    23    24   ar
    22    24    25   ar
    23     4     5    1
    24     5     6    1
    25    15    10   ar
    26     6     1    1
    27    25    20   ar
@<TRIPOS>MOLECULE
*****
 25 27 0 0 0
SMALL
GASTEIGER

@<TRIPOS>ATOM
      1 C         140.2439  140.1149  165.8464 C.3     1  UNL1        0.0825
      2 C         140.9881  138.9446  165.2751 C.3     1  UNL1        0.0375
      3 C         141.3122  138.9041  163.8110 C.3     1  UNL1        0.0738
      4 N         140.8920  140.0339  162.9184 N.3     1  UNL1       -0.2723
      5 C         140.1477  141.2042  163.4897 C.3     1  UNL1        0.0738
      6 C         139.8237  141.2448  164.9537 C.3     1  UNL1        0.0375
      7 C         138.6618  139.5154  167.8181 C.2     1  UNL1        0.2293
      8 O         138.3378  139.5560  169.2822 O.2     1  UNL1       -0.2745
      9 N         139.9199  140.1554  167.3104 N.am    1  UNL1       -0.2602
     10 C         140.8539  140.8359  168.2668 C.ar    1  UNL1        0.0537
     11 C         142.0384  140.0955  168.8132 C.ar    1  UNL1        0.0149
     12 C         142.9724  140.7760  169.7695 C.ar    1  UNL1        0.0013
     13 C         142.7218  142.1970  170.1794 C.ar    1  UNL1        0.0001
     14 C         141.5373  142.9374  169.6330 C.ar    1  UNL1        0.0013
     15 C         140.6033  142.2569  168.6767 C.ar    1  UNL1        0.0149
     16 C         137.8047  137.3496  166.6673 C.3     1  UNL1        0.0101
     17 C         137.7278  138.8350  166.8618 C.3     1  UNL1        0.0856
     18 C         141.2160  139.9934  161.4544 C.3     1  UNL1        0.0768
     19 C         142.5748  140.4107  160.9751 C.3     1  UNL1        0.0437
     20 C         143.5299  141.0799  161.9185 C.ar    1  UNL1       -0.0208
     21 C         143.4662  142.5646  162.1223 C.ar    1  UNL1       -0.0042
     22 C         144.4213  143.2339  163.0656 C.ar    1  UNL1       -0.0003
     23 C         145.4401  142.4184  163.8051 C.ar    1  UNL1       -0.0000
     24 C         145.5039  140.9336  163.6013 C.ar    1  UNL1       -0.0003
     25 C         144.5488  140.2644  162.6580 C.ar    1  UNL1       -0.0042
@<TRIPOS>BOND
     1    16    17    1
     2    17     7    1
     3     7     8    2
     4     7     9   am
     5     9    10    1
     6    10    11   ar
     7    11    12   ar
     8    12    13   ar
     9    13    14   ar
    10    14    15   ar
    11     9     1    1
    12     1     2    1
    13     2     3    1
    14     3     4    1
    15     4    18    1
    16    18    19    1
    17    19    20    1
    18    20    21   ar
    19    21    22   ar
    20    22    23   ar
    21    23    24   ar
    22    24    25   ar
    23     4     5    1
    24     5     6    1
    25    15    10   ar
    26     6     1    1
    27    25    20   ar
@<TRIPOS>MOLECULE
*****
 25 27 0 0 0
SMALL
GASTEIGER

@<TRIPOS>ATOM
      1 C         140.4154  141.7176  165.8047 C.3     1  UNL1        0.0825
      2 C         141.5013  141.1994  164.9089 C.3     1  UNL1        0.0375
      3 C         141.5944  141.6764  163.4898 C.3     1  UNL1        0.0738
      4 N         140.6015  142.6716  162.9665 N.3     1  UNL1       -0.2723
      5 C         139.5156  143.1897  163.8622 C.3     1  UNL1        0.0738
      6 C         139.4226  142.7128  165.2812 C.3     1  UNL1        0.0375
      7 C         139.3956  140.1155  167.5775 C.2     1  UNL1        0.2293
      8 O         139.3026  139.6385  168.9967 O.2     1  UNL1       -0.2745
      9 N         140.3223  141.2406  167.2237 N.am    1  UNL1       -0.2602
     10 C         141.1560  141.8888  168.2891 C.ar    1  UNL1        0.0537
     11 C         142.5714  141.4434  168.5085 C.ar    1  UNL1        0.0149
     12 C         143.4050  142.0916  169.5738 C.ar    1  UNL1        0.0013
     13 C         142.8232  143.1852  170.4197 C.ar    1  UNL1        0.0001
     14 C         141.4078  143.6306  170.2003 C.ar    1  UNL1        0.0013
     15 C         140.5742  142.9825  169.1350 C.ar    1  UNL1        0.0149
     16 C         137.7027  138.2846  166.8483 C.3     1  UNL1        0.0101
     17 C         138.5619  139.4673  166.5123 C.3     1  UNL1        0.0856
     18 C         140.6946  143.1485  161.5474 C.3     1  UNL1        0.0768
     19 C         140.1254  142.3156  160.4373 C.3     1  UNL1        0.0437
     20 C         139.6186  140.9326  160.7214 C.ar    1  UNL1       -0.0208
     21 C         140.5206  139.7494  160.5308 C.ar    1  UNL1       -0.0042
     22 C         140.0139  138.3665  160.8149 C.ar    1  UNL1       -0.0003
     23 C         138.6051  138.1668  161.2896 C.ar    1  UNL1       -0.0000
     24 C         137.7031  139.3501  161.4803 C.ar    1  UNL1       -0.0003
     25 C         138.2098  140.7330  161.1962 C.ar    1  UNL1       -0.0042
@<TRIPOS>BOND
     1    16    17    1
     2    17     7    1
     3     7     8    2
     4     7     9   am
     5     9    10    1
     6    10    11   ar
     7    11    12   ar
     8    12    13   ar
     9    13    14   ar
    10    14    15   ar
    11     9     1    1
    12     1     2    1
    13     2     3    1
    14     3     4    1
    15     4    18    1
    16    18    19    1
    17    19    20    1
    18    20    21   ar
    19    21    22   ar
    20    22    23   ar
    21    23    24   ar
    22    24    25   ar
    23     4     5    1
    24     5     6    1
    25    15    10   ar
    26     6     1    1
    27    25    20   ar
@<TRIPOS>MOLECULE
*****
 25 27 0 0 0
SMALL
GASTEIGER

@<TRIPOS>ATOM
      1 C         140.2821  142.3262  163.7439 C.3     1  UNL1        0.0825
      2 C         139.6775  140.9731  163.9755 C.3     1  UNL1        0.0375
      3 C         140.3409  140.0052  164.9099 C.3     1  UNL1        0.0738
      4 N         141.6089  140.3903  165.6126 N.3     1  UNL1       -0.2723
      5 C         142.2135  141.7434  165.3810 C.3     1  UNL1        0.0738
      6 C         141.5501  142.7113  164.4467 C.3     1  UNL1        0.0375
      7 C         138.5051  144.1695  163.3031 C.2     1  UNL1        0.2293
      8 O         137.8417  145.1375  162.3687 O.2     1  UNL1       -0.2745
      9 N         139.6187  143.2941  162.8096 N.am    1  UNL1       -0.2602
     10 C         140.0689  143.3867  161.3817 C.ar    1  UNL1        0.0537
     11 C         141.1555  144.3472  160.9987 C.ar    1  UNL1        0.0149
     12 C         141.6057  144.4398  159.5709 C.ar    1  UNL1        0.0013
     13 C         140.9693  143.5718  158.5260 C.ar    1  UNL1        0.0001
     14 C         139.8827  142.6113  158.9091 C.ar    1  UNL1        0.0013
     15 C         139.4326  142.5188  160.3369 C.ar    1  UNL1        0.0149
     16 C         138.5857  145.0424  165.7488 C.3     1  UNL1        0.0101
     17 C         138.0548  144.0770  164.7309 C.3     1  UNL1        0.0856
     18 C         142.2723  139.4224  166.5469 C.3     1  UNL1        0.0768
     19 C         142.6329  139.8506  167.9385 C.3     1  UNL1        0.0437
     20 C         141.7084  140.7436  168.7118 C.ar    1  UNL1       -0.0208
     21 C         142.1236  142.1464  169.0432 C.ar    1  UNL1       -0.0042
     22 C         141.1991  143.0393  169.8164 C.ar    1  UNL1       -0.0003
     23 C         139.8594  142.5295  170.2582 C.ar    1  UNL1       -0.0000
     24 C         139.4442  141.1267  169.9268 C.ar    1  UNL1       -0.0003
     25 C         140.3687  140.2338  169.1536 C.ar    1  UNL1       -0.0042
@<TRIPOS>BOND
     1    16    17    1
     2    17     7    1
     3     7     8    2
     4     7     9   am
     5     9    10    1
     6    10    11   ar
     7    11    12   ar
     8    12    13   ar
     9    13    14   ar
    10    14    15   ar
    11     9     1    1
    12     1     2    1
    13     2     3    1
    14     3     4    1
    15     4    18    1
    16    18    19    1
    17    19    20    1
    18    20    21   ar
    19    21    22   ar
    20    22    23   ar
    21    23    24   ar
    22    24    25   ar
    23     4     5    1
    24     5     6    1
    25    15    10   ar
    26     6     1    1
    27    25    20   ar
@<TRIPOS>MOLECULE
*****
 25 27 0 0 0
SMALL
GASTEIGER

@<TRIPOS>ATOM
      1 C         140.7744  142.0890  165.9929 C.3     1  UNL1        0.0825
      2 C         139.7031  143.1229  165.8103 C.3     1  UNL1        0.0375
      3 C         139.9131  144.2599  164.8546 C.3     1  UNL1        0.0738
      4 N         141.1943  144.3629  164.0814 N.3     1  UNL1       -0.2723
      5 C         142.2656  143.3290  164.2640 C.3     1  UNL1        0.0738
      6 C         142.0557  142.1921  165.2196 C.3     1  UNL1        0.0375
      7 C         141.0746  141.0512  168.3556 C.2     1  UNL1        0.2293
      8 O         140.8646  139.9143  169.3113 O.2     1  UNL1       -0.2745
      9 N         140.5645  140.9521  166.9485 N.am    1  UNL1       -0.2602
     10 C         139.8444  139.7160  166.4971 C.ar    1  UNL1        0.0537
     11 C         138.5315  139.3434  167.1194 C.ar    1  UNL1        0.0149
     12 C         137.8116  138.1074  166.6679 C.ar    1  UNL1        0.0013
     13 C         138.4045  137.2440  165.5942 C.ar    1  UNL1        0.0001
     14 C         139.7175  137.6166  164.9719 C.ar    1  UNL1        0.0013
     15 C         140.4374  138.8526  165.4233 C.ar    1  UNL1        0.0149
     16 C         143.2939  142.3094  168.8472 C.3     1  UNL1        0.0101
     17 C         141.7946  142.2872  168.8071 C.3     1  UNL1        0.0856
     18 C         141.4042  145.4998  163.1258 C.3     1  UNL1        0.0768
     19 C         140.3328  145.8575  162.1388 C.3     1  UNL1        0.0437
     20 C         140.0557  144.9554  160.9728 C.ar    1  UNL1       -0.0208
     21 C         139.3879  143.6302  161.1919 C.ar    1  UNL1       -0.0042
     22 C         139.1108  142.7281  160.0260 C.ar    1  UNL1       -0.0003
     23 C         139.5015  143.1512  158.6409 C.ar    1  UNL1       -0.0000
     24 C         140.1693  144.4764  158.4219 C.ar    1  UNL1       -0.0003
     25 C         140.4464  145.3785  159.5878 C.ar    1  UNL1       -0.0042
@<TRIPOS>BOND
     1    16    17    1
     2    17     7    1
     3     7     8    2
     4     7     9   am
     5     9    10    1
     6    10    11   ar
     7    11    12   ar
     8    12    13   ar
     9    13    14   ar
    10    14    15   ar
    11     9     1    1
    12     1     2    1
    13     2     3    1
    14     3     4    1
    15     4    18    1
    16    18    19    1
    17    19    20    1
    18    20    21   ar
    19    21    22   ar
    20    22    23   ar
    21    23    24   ar
    22    24    25   ar
    23     4     5    1
    24     5     6    1
    25    15    10   ar
    26     6     1    1
    27    25    20   ar
@<TRIPOS>MOLECULE
*****
 25 27 0 0 0
SMALL
GASTEIGER

@<TRIPOS>ATOM
      1 C         140.5090  142.8764  165.3658 C.3     1  UNL1        0.0825
      2 C         139.4681  143.9307  165.1313 C.3     1  UNL1        0.0375
      3 C         139.5538  144.8131  163.9212 C.3     1  UNL1        0.0738
      4 N         140.6802  144.6411  162.9458 N.3     1  UNL1       -0.2723
      5 C         141.7210  143.5868  163.1803 C.3     1  UNL1        0.0738
      6 C         141.6354  142.7044  164.3902 C.3     1  UNL1        0.0375
      7 C         139.5782  140.7552  166.5424 C.2     1  UNL1        0.2293
      8 O         139.4926  139.8729  167.7524 O.2     1  UNL1       -0.2745
      9 N         140.4234  141.9940  166.5757 N.am    1  UNL1       -0.2602
     10 C         141.1831  142.3504  167.8191 C.ar    1  UNL1        0.0537
     11 C         142.6097  141.9148  167.9772 C.ar    1  UNL1        0.0149
     12 C         143.3693  142.2712  169.2205 C.ar    1  UNL1        0.0013
     13 C         142.7022  143.0631  170.3058 C.ar    1  UNL1        0.0001
     14 C         141.2756  143.4986  170.1478 C.ar    1  UNL1        0.0013
     15 C         140.5160  143.1423  168.9045 C.ar    1  UNL1        0.0149
     16 C         138.6184  138.9590  164.9292 C.3     1  UNL1        0.0101
     17 C         138.8185  140.3989  165.2990 C.3     1  UNL1        0.0856
     18 C         140.7657  145.5235  161.7358 C.3     1  UNL1        0.0768
     19 C         140.0254  145.1544  160.4845 C.3     1  UNL1        0.0437
     20 C         140.7534  145.0861  159.1748 C.ar    1  UNL1       -0.0208
     21 C         141.9384  144.1792  159.0219 C.ar    1  UNL1       -0.0042
     22 C         142.6665  144.1109  157.7122 C.ar    1  UNL1       -0.0003
     23 C         142.2096  144.9494  156.5555 C.ar    1  UNL1       -0.0000
     24 C         141.0246  145.8563  156.7084 C.ar    1  UNL1       -0.0003
     25 C         140.2965  145.9247  158.0181 C.ar    1  UNL1       -0.0042
@<TRIPOS>BOND
     1    16    17    1
     2    17     7    1
     3     7     8    2
     4     7     9   am
     5     9    10    1
     6    10    11   ar
     7    11    12   ar
     8    12    13   ar
     9    13    14   ar
    10    14    15   ar
    11     9     1    1
    12     1     2    1
    13     2     3    1
    14     3     4    1
    15     4    18    1
    16    18    19    1
    17    19    20    1
    18    20    21   ar
    19    21    22   ar
    20    22    23   ar
    21    23    24   ar
    22    24    25   ar
    23     4     5    1
    24     5     6    1
    25    15    10   ar
    26     6     1    1
    27    25    20   ar
@<TRIPOS>MOLECULE
*****
 25 27 0 0 0
SMALL
GASTEIGER

@<TRIPOS>ATOM
      1 C         140.3553  141.9643  161.6024 C.3     1  UNL1        0.0825
      2 C         141.7356  141.7022  162.1279 C.3     1  UNL1        0.0375
      3 C         142.1586  140.3016  162.4590 C.3     1  UNL1        0.0738
      4 N         141.2014  139.1633  162.2645 N.3     1  UNL1       -0.2723
      5 C         139.8212  139.4254  161.7391 C.3     1  UNL1        0.0738
      6 C         139.3981  140.8258  161.4080 C.3     1  UNL1        0.0375
      7 C         139.2556  144.2092  162.3102 C.2     1  UNL1        0.2293
      8 O         138.8325  145.6098  161.9791 O.2     1  UNL1       -0.2745
      9 N         139.9322  143.3648  161.2714 N.am    1  UNL1       -0.2602
     10 C         140.1857  143.9208  159.9015 C.ar    1  UNL1        0.0537
     11 C         139.3864  143.4275  158.7320 C.ar    1  UNL1        0.0149
     12 C         139.6399  143.9836  157.3622 C.ar    1  UNL1        0.0013
     13 C         140.6928  145.0330  157.1618 C.ar    1  UNL1        0.0001
     14 C         141.4921  145.5264  158.3313 C.ar    1  UNL1        0.0013
     15 C         141.2386  144.9703  159.7011 C.ar    1  UNL1        0.0149
     16 C         137.6919  142.9920  163.9905 C.3     1  UNL1        0.0101
     17 C         139.0021  143.6532  163.6800 C.3     1  UNL1        0.0856
     18 C         141.6245  137.7628  162.5956 C.3     1  UNL1        0.0768
     19 C         141.1424  137.1123  163.8583 C.3     1  UNL1        0.0437
     20 C         140.4062  137.9213  164.8849 C.ar    1  UNL1       -0.0208
     21 C         138.9403  137.6947  165.1081 C.ar    1  UNL1       -0.0042
     22 C         138.2042  138.5036  166.1345 C.ar    1  UNL1       -0.0003
     23 C         138.9339  139.5390  166.9379 C.ar    1  UNL1       -0.0000
     24 C         140.3998  139.7655  166.7147 C.ar    1  UNL1       -0.0003
     25 C         141.1360  138.9567  165.6882 C.ar    1  UNL1       -0.0042
@<TRIPOS>BOND
     1    16    17    1
     2    17     7    1
     3     7     8    2
     4     7     9   am
     5     9    10    1
     6    10    11   ar
     7    11    12   ar
     8    12    13   ar
     9    13    14   ar
    10    14    15   ar
    11     9     1    1
    12     1     2    1
    13     2     3    1
    14     3     4    1
    15     4    18    1
    16    18    19    1
    17    19    20    1
    18    20    21   ar
    19    21    22   ar
    20    22    23   ar
    21    23    24   ar
    22    24    25   ar
    23     4     5    1
    24     5     6    1
    25    15    10   ar
    26     6     1    1
    27    25    20   ar
@<TRIPOS>MOLECULE
*****
 25 27 0 0 0
SMALL
GASTEIGER

@<TRIPOS>ATOM
      1 C         140.9924  141.1073  165.8924 C.3     1  UNL1        0.0825
      2 C         141.6443  141.9548  164.8404 C.3     1  UNL1        0.0375
      3 C         140.8048  142.6423  163.8047 C.3     1  UNL1        0.0738
      4 N         139.3135  142.4823  163.8210 N.3     1  UNL1       -0.2723
      5 C         138.6616  141.6347  164.8730 C.3     1  UNL1        0.0738
      6 C         139.5010  140.9473  165.9087 C.3     1  UNL1        0.0375
      7 C         142.6047  139.1856  166.5686 C.2     1  UNL1        0.2293
      8 O         143.4442  138.4981  167.6044 O.2     1  UNL1       -0.2745
      9 N         141.8318  140.4198  166.9281 N.am    1  UNL1       -0.2602
     10 C         141.8982  140.9665  168.3234 C.ar    1  UNL1        0.0537
     11 C         142.8520  142.0775  168.6490 C.ar    1  UNL1        0.0149
     12 C         142.9184  142.6241  170.0442 C.ar    1  UNL1        0.0013
     13 C         142.0311  142.0598  171.1139 C.ar    1  UNL1        0.0001
     14 C         141.0773  140.9488  170.7883 C.ar    1  UNL1        0.0013
     15 C         141.0109  140.4022  169.3931 C.ar    1  UNL1        0.0149
     16 C         141.4736  137.6482  164.8060 C.3     1  UNL1        0.0101
     17 C         142.5383  138.6389  165.1734 C.3     1  UNL1        0.0856
     18 C         138.4741  143.1698  162.7853 C.3     1  UNL1        0.0768
     19 C         138.0697  142.4371  161.5405 C.3     1  UNL1        0.0437
     20 C         138.4780  141.0068  161.3459 C.ar    1  UNL1       -0.0208
     21 C         139.7769  140.6832  160.6692 C.ar    1  UNL1       -0.0042
     22 C         140.1853  139.2530  160.4746 C.ar    1  UNL1       -0.0003
     23 C         139.2947  138.1466  160.9568 C.ar    1  UNL1       -0.0000
     24 C         137.9958  138.4702  161.6335 C.ar    1  UNL1       -0.0003
     25 C         137.5874  139.9004  161.8281 C.ar    1  UNL1       -0.0042
@<TRIPOS>BOND
     1    16    17    1
     2    17     7    1
     3     7     8    2
     4     7     9   am
     5     9    10    1
     6    10    11   ar
     7    11    12   ar
     8    12    13   ar
     9    13    14   ar
    10    14    15   ar
    11     9     1    1
    12     1     2    1
    13     2     3    1
    14     3     4    1
    15     4    18    1
    16    18    19    1
    17    19    20    1
    18    20    21   ar
    19    21    22   ar
    20    22    23   ar
    21    23    24   ar
    22    24    25   ar
    23     4     5    1
    24     5     6    1
    25    15    10   ar
    26     6     1    1
    27    25    20   ar
