@<TRIPOS>MOLECULE
*****
 30 33 0 0 0
SMALL
GASTEIGER

@<TRIPOS>ATOM
      1 C         141.4994  145.5167  158.7285 C.3     1  UNL1        0.0420
      2 C         141.4211  145.0341  160.1467 C.3     1  UNL1        0.1909
      3 O         142.4715  144.1072  160.6826 O.3     1  UNL1       -0.3501
      4 C         142.3932  143.6246  162.1007 C.3     1  UNL1        0.1141
      5 C         142.3149  143.1421  163.5188 C.3     1  UNL1        0.0463
      6 C         143.3653  142.2152  164.0547 C.3     1  UNL1        0.0746
      7 N         144.4941  141.7706  163.1725 N.3     1  UNL1       -0.2722
      8 C         144.5725  142.2531  161.7544 C.3     1  UNL1        0.0746
      9 C         143.5220  143.1801  161.2185 C.3     1  UNL1        0.0463
     10 C         141.2644  144.0691  162.9829 C.3     1  UNL1        0.1206
     11 N         140.2140  144.9962  162.4469 N.am    1  UNL1       -0.2748
     12 C         140.2923  145.4787  161.0288 C.2     1  UNL1        0.2529
     13 O         139.2419  146.4057  160.4929 O.2     1  UNL1       -0.2722
     14 C         145.5446  140.8436  163.7085 C.3     1  UNL1        0.0768
     15 C         145.1480  139.5263  164.3062 C.3     1  UNL1        0.0437
     16 C         143.8581  138.8766  163.9009 C.ar    1  UNL1       -0.0208
     17 C         142.8089  138.5847  164.9323 C.ar    1  UNL1       -0.0042
     18 C         141.5191  137.9351  164.5270 C.ar    1  UNL1       -0.0003
     19 C         141.2785  137.5774  163.0902 C.ar    1  UNL1       -0.0000
     20 C         142.3278  137.8693  162.0588 C.ar    1  UNL1       -0.0003
     21 C         143.6176  138.5189  162.4642 C.ar    1  UNL1       -0.0042
     22 C         139.0852  145.4407  163.3291 C.3     1  UNL1        0.0983
     23 C         138.7444  144.6581  164.5626 C.3     1  UNL1        0.0501
     24 C         138.5548  143.1724  164.4797 C.ar    1  UNL1        0.0070
     25 C         137.6668  142.5876  163.4215 C.ar    1  UNL1       -0.0020
     26 C         137.4772  141.1019  163.3386 C.ar    1  UNL1       -0.0002
     27 C         138.1755  140.2011  164.3138 C.ar    1  UNL1        0.0023
     28 C         139.0634  140.7859  165.3719 C.ar    1  UNL1        0.0293
     29 C         139.2530  142.2716  165.4548 C.ar    1  UNL1        0.1362
     30 F         140.1409  142.8564  166.5129 F       1  UNL1       -0.2045
@<TRIPOS>BOND
     1     1     2    1
     2     2     3    1
     3     3     4    1
     4     4     5    1
     5     5     6    1
     6     6     7    1
     7     7    14    1
     8    14    15    1
     9    15    16    1
    10    16    17   ar
    11    17    18   ar
    12    18    19   ar
    13    19    20   ar
    14    20    21   ar
    15     7     8    1
    16     8     9    1
    17     4    10    1
    18    10    11    1
    19    11    22    1
    20    22    23    1
    21    23    24    1
    22    24    25   ar
    23    25    26   ar
    24    26    27   ar
    25    27    28   ar
    26    28    29   ar
    27    29    30    1
    28    11    12   am
    29    12    13    2
    30    12     2    1
    31     9     4    1
    32    29    24   ar
    33    21    16   ar
@<TRIPOS>MOLECULE
*****
 30 33 0 0 0
SMALL
GASTEIGER

@<TRIPOS>ATOM
      1 C         140.6700  141.2767  170.2840 C.3     1  UNL1        0.0420
      2 C         140.5876  140.9472  168.8229 C.3     1  UNL1        0.1909
      3 O         141.6070  141.4992  167.8709 O.3     1  UNL1       -0.3501
      4 C         141.5246  141.1697  166.4098 C.3     1  UNL1        0.1141
      5 C         141.4422  140.8402  164.9488 C.3     1  UNL1        0.0463
      6 C         142.4616  141.3922  163.9969 C.3     1  UNL1        0.0746
      7 N         143.5633  142.2737  164.5060 N.3     1  UNL1       -0.2722
      8 C         143.6457  142.6032  165.9670 C.3     1  UNL1        0.0746
      9 C         142.6263  142.0512  166.9189 C.3     1  UNL1        0.0463
     10 C         140.4229  140.2882  165.9007 C.3     1  UNL1        0.1206
     11 N         139.4035  139.7362  166.8528 N.am    1  UNL1       -0.2748
     12 C         139.4859  140.0657  168.3138 C.2     1  UNL1        0.2529
     13 O         138.4665  139.5137  169.2658 O.2     1  UNL1       -0.2722
     14 C         144.5826  142.8257  163.5540 C.3     1  UNL1        0.0768
     15 C         144.2909  144.0821  162.7883 C.3     1  UNL1        0.0437
     16 C         142.8739  144.4474  162.4584 C.ar    1  UNL1       -0.0208
     17 C         142.2818  144.0414  161.1414 C.ar    1  UNL1       -0.0042
     18 C         140.8649  144.4068  160.8117 C.ar    1  UNL1       -0.0003
     19 C         140.0400  145.1781  161.7989 C.ar    1  UNL1       -0.0000
     20 C         140.6321  145.5842  163.1159 C.ar    1  UNL1       -0.0003
     21 C         142.0490  145.2188  163.4457 C.ar    1  UNL1       -0.0042
     22 C         138.3018  138.8547  166.3437 C.3     1  UNL1        0.0983
     23 C         138.6241  137.6855  165.4609 C.3     1  UNL1        0.0501
     24 C         139.2158  137.9129  164.1014 C.ar    1  UNL1        0.0070
     25 C         138.4616  138.7104  163.0790 C.ar    1  UNL1       -0.0020
     26 C         139.0534  138.9378  161.7195 C.ar    1  UNL1       -0.0002
     27 C         140.3993  138.3677  161.3825 C.ar    1  UNL1        0.0023
     28 C         141.1534  137.5702  162.4049 C.ar    1  UNL1        0.0293
     29 C         140.5617  137.3429  163.7644 C.ar    1  UNL1        0.1362
     30 F         141.3158  136.5454  164.7868 F       1  UNL1       -0.2045
@<TRIPOS>BOND
     1     1     2    1
     2     2     3    1
     3     3     4    1
     4     4     5    1
     5     5     6    1
     6     6     7    1
     7     7    14    1
     8    14    15    1
     9    15    16    1
    10    16    17   ar
    11    17    18   ar
    12    18    19   ar
    13    19    20   ar
    14    20    21   ar
    15     7     8    1
    16     8     9    1
    17     4    10    1
    18    10    11    1
    19    11    22    1
    20    22    23    1
    21    23    24    1
    22    24    25   ar
    23    25    26   ar
    24    26    27   ar
    25    27    28   ar
    26    28    29   ar
    27    29    30    1
    28    11    12   am
    29    12    13    2
    30    12     2    1
    31     9     4    1
    32    29    24   ar
    33    21    16   ar
@<TRIPOS>MOLECULE
*****
 30 33 0 0 0
SMALL
GASTEIGER

@<TRIPOS>ATOM
      1 C         143.4289  143.2029  158.2917 C.3     1  UNL1        0.0420
      2 C         142.9539  143.2908  159.7118 C.3     1  UNL1        0.1909
      3 O         143.3414  142.2303  160.6993 O.3     1  UNL1       -0.3501
      4 C         142.8664  142.3181  162.1194 C.3     1  UNL1        0.1141
      5 C         142.3913  142.4059  163.5394 C.3     1  UNL1        0.0463
      6 C         142.7789  141.3454  164.5269 C.3     1  UNL1        0.0746
      7 N         143.6415  140.1971  164.0943 N.3     1  UNL1       -0.2722
      8 C         144.1166  140.1092  162.6742 C.3     1  UNL1        0.0746
      9 C         143.7290  141.1697  161.6868 C.3     1  UNL1        0.0463
     10 C         142.0037  143.4664  162.5520 C.3     1  UNL1        0.1206
     11 N         141.6162  144.5270  161.5645 N.am    1  UNL1       -0.2748
     12 C         142.0912  144.4391  160.1444 C.2     1  UNL1        0.2529
     13 O         141.7037  145.4997  159.1569 O.2     1  UNL1       -0.2722
     14 C         144.0291  139.1365  165.0818 C.3     1  UNL1        0.0768
     15 C         142.9753  138.2664  165.7002 C.3     1  UNL1        0.0437
     16 C         141.6178  138.1691  165.0693 C.ar    1  UNL1       -0.0208
     17 C         141.4531  137.4815  163.7465 C.ar    1  UNL1       -0.0042
     18 C         140.0957  137.3843  163.1157 C.ar    1  UNL1       -0.0003
     19 C         138.9030  137.9746  163.8078 C.ar    1  UNL1       -0.0000
     20 C         139.0678  138.6623  165.1307 C.ar    1  UNL1       -0.0003
     21 C         140.4252  138.7595  165.7614 C.ar    1  UNL1       -0.0042
     22 C         140.7535  145.6753  161.9971 C.3     1  UNL1        0.0983
     23 C         139.2649  145.5077  162.0741 C.3     1  UNL1        0.0501
     24 C         138.6803  144.2418  162.6271 C.ar    1  UNL1        0.0070
     25 C         138.3422  143.1070  161.7062 C.ar    1  UNL1       -0.0020
     26 C         137.7576  141.8411  162.2593 C.ar    1  UNL1       -0.0002
     27 C         137.5111  141.7101  163.7331 C.ar    1  UNL1        0.0023
     28 C         137.8492  142.8449  164.6539 C.ar    1  UNL1        0.0293
     29 C         138.4338  144.1108  164.1008 C.ar    1  UNL1        0.1362
     30 F         138.7719  145.2456  165.0216 F       1  UNL1       -0.2045
@<TRIPOS>BOND
     1     1     2    1
     2     2     3    1
     3     3     4    1
     4     4     5    1
     5     5     6    1
     6     6     7    1
     7     7    14    1
     8    14    15    1
     9    15    16    1
    10    16    17   ar
    11    17    18   ar
    12    18    19   ar
    13    19    20   ar
    14    20    21   ar
    15     7     8    1
    16     8     9    1
    17     4    10    1
    18    10    11    1
    19    11    22    1
    20    22    23    1
    21    23    24    1
    22    24    25   ar
    23    25    26   ar
    24    26    27   ar
    25    27    28   ar
    26    28    29   ar
    27    29    30    1
    28    11    12   am
    29    12    13    2
    30    12     2    1
    31     9     4    1
    32    29    24   ar
    33    21    16   ar
@<TRIPOS>MOLECULE
*****
 30 33 0 0 0
SMALL
GASTEIGER

@<TRIPOS>ATOM
      1 C         139.7015  146.3627  161.6597 C.3     1  UNL1        0.0420
      2 C         140.1432  144.9292  161.6774 C.3     1  UNL1        0.1909
      3 O         139.5596  143.9769  162.6785 O.3     1  UNL1       -0.3501
      4 C         140.0013  142.5434  162.6962 C.3     1  UNL1        0.1141
      5 C         140.4430  141.1101  162.7138 C.3     1  UNL1        0.0463
      6 C         139.8594  140.1577  163.7149 C.3     1  UNL1        0.0746
      7 N         138.8340  140.6387  164.6984 N.3     1  UNL1       -0.2722
      8 C         138.3923  142.0721  164.6808 C.3     1  UNL1        0.0746
      9 C         138.9759  143.0244  163.6797 C.3     1  UNL1        0.0463
     10 C         141.0267  142.0625  161.7127 C.3     1  UNL1        0.1206
     11 N         141.6103  143.0149  160.7115 N.am    1  UNL1       -0.2748
     12 C         141.1686  144.4483  160.6939 C.2     1  UNL1        0.2529
     13 O         141.7523  145.4007  159.6927 O.2     1  UNL1       -0.2722
     14 C         138.2504  139.6863  165.6996 C.3     1  UNL1        0.0768
     15 C         138.9513  139.4465  167.0038 C.3     1  UNL1        0.0437
     16 C         140.2067  140.1999  167.3303 C.ar    1  UNL1       -0.0208
     17 C         141.5426  139.6290  166.9572 C.ar    1  UNL1       -0.0042
     18 C         142.7978  140.3825  167.2836 C.ar    1  UNL1       -0.0003
     19 C         142.7171  141.7069  167.9832 C.ar    1  UNL1       -0.0000
     20 C         141.3812  142.2779  168.3563 C.ar    1  UNL1       -0.0003
     21 C         140.1259  141.5244  168.0298 C.ar    1  UNL1       -0.0042
     22 C         142.6357  142.5339  159.7280 C.3     1  UNL1        0.0983
     23 C         144.0626  142.3598  160.1569 C.3     1  UNL1        0.0501
     24 C         144.3752  141.8379  161.5280 C.ar    1  UNL1        0.0070
     25 C         144.3337  140.3626  161.7964 C.ar    1  UNL1       -0.0020
     26 C         144.6463  139.8407  163.1675 C.ar    1  UNL1       -0.0002
     27 C         145.0004  140.7940  164.2701 C.ar    1  UNL1        0.0023
     28 C         145.0419  142.2692  164.0017 C.ar    1  UNL1        0.0293
     29 C         144.7293  142.7911  162.6306 C.ar    1  UNL1        0.1362
     30 F         144.7708  144.2663  162.3622 F       1  UNL1       -0.2045
@<TRIPOS>BOND
     1     1     2    1
     2     2     3    1
     3     3     4    1
     4     4     5    1
     5     5     6    1
     6     6     7    1
     7     7    14    1
     8    14    15    1
     9    15    16    1
    10    16    17   ar
    11    17    18   ar
    12    18    19   ar
    13    19    20   ar
    14    20    21   ar
    15     7     8    1
    16     8     9    1
    17     4    10    1
    18    10    11    1
    19    11    22    1
    20    22    23    1
    21    23    24    1
    22    24    25   ar
    23    25    26   ar
    24    26    27   ar
    25    27    28   ar
    26    28    29   ar
    27    29    30    1
    28    11    12   am
    29    12    13    2
    30    12     2    1
    31     9     4    1
    32    29    24   ar
    33    21    16   ar
@<TRIPOS>MOLECULE
*****
 30 33 0 0 0
SMALL
GASTEIGER

@<TRIPOS>ATOM
      1 C         142.2662  144.4213  157.5428 C.3     1  UNL1        0.0420
      2 C         142.0964  144.4241  159.0333 C.3     1  UNL1        0.1909
      3 O         143.0147  143.6083  159.8942 O.3     1  UNL1       -0.3501
      4 C         142.8449  143.6111  161.3846 C.3     1  UNL1        0.1141
      5 C         142.6751  143.6139  162.8750 C.3     1  UNL1        0.0463
      6 C         143.5933  142.7982  163.7359 C.3     1  UNL1        0.0746
      7 N         144.6814  141.9796  163.1065 N.3     1  UNL1       -0.2722
      8 C         144.8512  141.9768  161.6162 C.3     1  UNL1        0.0746
      9 C         143.9329  142.7925  160.7553 C.3     1  UNL1        0.0463
     10 C         141.7569  144.4297  162.0140 C.3     1  UNL1        0.1206
     11 N         140.8386  145.2455  161.1529 N.am    1  UNL1       -0.2748
     12 C         141.0084  145.2427  159.6626 C.2     1  UNL1        0.2529
     13 O         140.0901  146.0585  158.8016 O.2     1  UNL1       -0.2722
     14 C         145.5996  141.1638  163.9676 C.3     1  UNL1        0.0768
     15 C         145.2293  139.7581  164.3373 C.3     1  UNL1        0.0437
     16 C         143.7926  139.3993  164.5772 C.ar    1  UNL1       -0.0208
     17 C         142.9938  138.7377  163.4937 C.ar    1  UNL1       -0.0042
     18 C         141.5573  138.3790  163.7336 C.ar    1  UNL1       -0.0003
     19 C         140.9195  138.6820  165.0571 C.ar    1  UNL1       -0.0000
     20 C         141.7184  139.3437  166.1406 C.ar    1  UNL1       -0.0003
     21 C         143.1549  139.7023  165.9006 C.ar    1  UNL1       -0.0042
     22 C         139.7506  146.0641  161.7823 C.3     1  UNL1        0.0983
     23 C         138.5802  145.3850  162.4298 C.3     1  UNL1        0.0501
     24 C         138.8074  144.2925  163.4322 C.ar    1  UNL1        0.0070
     25 C         139.4958  144.5965  164.7298 C.ar    1  UNL1       -0.0020
     26 C         139.7230  143.5040  165.7322 C.ar    1  UNL1       -0.0002
     27 C         139.2619  142.1075  165.4370 C.ar    1  UNL1        0.0023
     28 C         138.5735  141.8035  164.1394 C.ar    1  UNL1        0.0293
     29 C         138.3463  142.8960  163.1370 C.ar    1  UNL1        0.1362
     30 F         137.6580  142.5921  161.8394 F       1  UNL1       -0.2045
@<TRIPOS>BOND
     1     1     2    1
     2     2     3    1
     3     3     4    1
     4     4     5    1
     5     5     6    1
     6     6     7    1
     7     7    14    1
     8    14    15    1
     9    15    16    1
    10    16    17   ar
    11    17    18   ar
    12    18    19   ar
    13    19    20   ar
    14    20    21   ar
    15     7     8    1
    16     8     9    1
    17     4    10    1
    18    10    11    1
    19    11    22    1
    20    22    23    1
    21    23    24    1
    22    24    25   ar
    23    25    26   ar
    24    26    27   ar
    25    27    28   ar
    26    28    29   ar
    27    29    30    1
    28    11    12   am
    29    12    13    2
    30    12     2    1
    31     9     4    1
    32    29    24   ar
    33    21    16   ar
@<TRIPOS>MOLECULE
*****
 30 33 0 0 0
SMALL
GASTEIGER

@<TRIPOS>ATOM
      1 C         143.6338  142.2841  158.3288 C.3     1  UNL1        0.0420
      2 C         142.4353  142.4678  159.2119 C.3     1  UNL1        0.1909
      3 O         141.7927  141.2780  159.8611 O.3     1  UNL1       -0.3501
      4 C         140.5941  141.4617  160.7443 C.3     1  UNL1        0.1141
      5 C         139.3957  141.6454  161.6273 C.3     1  UNL1        0.0463
      6 C         138.7531  140.4557  162.2766 C.3     1  UNL1        0.0746
      7 N         139.3089  139.0823  162.0428 N.3     1  UNL1       -0.2722
      8 C         140.5074  138.8985  161.1597 C.3     1  UNL1        0.0746
      9 C         141.1500  140.0883  160.5105 C.3     1  UNL1        0.0463
     10 C         140.0382  142.8351  160.9781 C.3     1  UNL1        0.1206
     11 N         140.6809  144.0249  160.3288 N.am    1  UNL1       -0.2748
     12 C         141.8794  143.8412  159.4457 C.2     1  UNL1        0.2529
     13 O         142.5221  145.0310  158.7964 O.2     1  UNL1       -0.2722
     14 C         138.6663  137.8925  162.6921 C.3     1  UNL1        0.0768
     15 C         139.2261  137.3420  163.9702 C.3     1  UNL1        0.0437
     16 C         139.3312  138.2195  165.1823 C.ar    1  UNL1       -0.0208
     17 C         140.5955  138.9810  165.4494 C.ar    1  UNL1       -0.0042
     18 C         140.7006  139.8584  166.6615 C.ar    1  UNL1       -0.0003
     19 C         139.5414  139.9742  167.6063 C.ar    1  UNL1       -0.0000
     20 C         138.2771  139.2127  167.3392 C.ar    1  UNL1       -0.0003
     21 C         138.1720  138.3353  166.1271 C.ar    1  UNL1       -0.0042
     22 C         140.1250  145.3983  160.5626 C.3     1  UNL1        0.0983
     23 C         140.1262  145.9827  161.9442 C.3     1  UNL1        0.0501
     24 C         140.0574  145.0802  163.1403 C.ar    1  UNL1        0.0070
     25 C         138.7297  144.7505  163.7557 C.ar    1  UNL1       -0.0020
     26 C         138.6608  143.8480  164.9518 C.ar    1  UNL1       -0.0002
     27 C         139.9197  143.2751  165.5325 C.ar    1  UNL1        0.0023
     28 C         141.2473  143.6048  164.9171 C.ar    1  UNL1        0.0293
     29 C         141.3161  144.5073  163.7210 C.ar    1  UNL1        0.1362
     30 F         142.6437  144.8370  163.1056 F       1  UNL1       -0.2045
@<TRIPOS>BOND
     1     1     2    1
     2     2     3    1
     3     3     4    1
     4     4     5    1
     5     5     6    1
     6     6     7    1
     7     7    14    1
     8    14    15    1
     9    15    16    1
    10    16    17   ar
    11    17    18   ar
    12    18    19   ar
    13    19    20   ar
    14    20    21   ar
    15     7     8    1
    16     8     9    1
    17     4    10    1
    18    10    11    1
    19    11    22    1
    20    22    23    1
    21    23    24    1
    22    24    25   ar
    23    25    26   ar
    24    26    27   ar
    25    27    28   ar
    26    28    29   ar
    27    29    30    1
    28    11    12   am
    29    12    13    2
    30    12     2    1
    31     9     4    1
    32    29    24   ar
    33    21    16   ar
@<TRIPOS>MOLECULE
*****
 30 33 0 0 0
SMALL
GASTEIGER

@<TRIPOS>ATOM
      1 C         140.0841  142.2702  156.6497 C.3     1  UNL1        0.0420
      2 C         140.4096  142.4827  158.0985 C.3     1  UNL1        0.1909
      3 O         140.7644  141.3123  158.9669 O.3     1  UNL1       -0.3501
      4 C         141.0899  141.5248  160.4158 C.3     1  UNL1        0.1141
      5 C         141.4153  141.7373  161.8645 C.3     1  UNL1        0.0463
      6 C         141.7701  140.5669  162.7330 C.3     1  UNL1        0.0746
      7 N         141.7994  139.1840  162.1527 N.3     1  UNL1       -0.2722
      8 C         141.4740  138.9715  160.7040 C.3     1  UNL1        0.0746
      9 C         141.1192  140.1419  159.8355 C.3     1  UNL1        0.0463
     10 C         141.0606  142.9077  160.9960 C.3     1  UNL1        0.1206
     11 N         140.7058  144.0781  160.1274 N.am    1  UNL1       -0.2748
     12 C         140.3803  143.8656  158.6787 C.2     1  UNL1        0.2529
     13 O         140.0255  145.0360  157.8102 O.2     1  UNL1       -0.2722
     14 C         142.1542  138.0136  163.0213 C.3     1  UNL1        0.0768
     15 C         141.0847  137.3047  163.7982 C.3     1  UNL1        0.0437
     16 C         140.3427  138.0267  164.8837 C.ar    1  UNL1       -0.0208
     17 C         138.8913  137.7336  165.1229 C.ar    1  UNL1       -0.0042
     18 C         138.1494  138.4556  166.2083 C.ar    1  UNL1       -0.0003
     19 C         138.8589  139.4708  167.0545 C.ar    1  UNL1       -0.0000
     20 C         140.3104  139.7639  166.8153 C.ar    1  UNL1       -0.0003
     21 C         141.0523  139.0419  165.7299 C.ar    1  UNL1       -0.0042
     22 C         140.6765  145.4610  160.7077 C.3     1  UNL1        0.0983
     23 C         139.6751  145.8078  161.7694 C.3     1  UNL1        0.0501
     24 C         139.4256  144.8586  162.9037 C.ar    1  UNL1        0.0070
     25 C         138.1609  144.0530  162.9431 C.ar    1  UNL1       -0.0020
     26 C         137.9113  143.1037  164.0774 C.ar    1  UNL1       -0.0002
     27 C         138.9265  142.9601  165.1724 C.ar    1  UNL1        0.0023
     28 C         140.1911  143.7657  165.1330 C.ar    1  UNL1        0.0293
     29 C         140.4407  144.7150  163.9986 C.ar    1  UNL1        0.1362
     30 F         141.7053  145.5206  163.9593 F       1  UNL1       -0.2045
@<TRIPOS>BOND
     1     1     2    1
     2     2     3    1
     3     3     4    1
     4     4     5    1
     5     5     6    1
     6     6     7    1
     7     7    14    1
     8    14    15    1
     9    15    16    1
    10    16    17   ar
    11    17    18   ar
    12    18    19   ar
    13    19    20   ar
    14    20    21   ar
    15     7     8    1
    16     8     9    1
    17     4    10    1
    18    10    11    1
    19    11    22    1
    20    22    23    1
    21    23    24    1
    22    24    25   ar
    23    25    26   ar
    24    26    27   ar
    25    27    28   ar
    26    28    29   ar
    27    29    30    1
    28    11    12   am
    29    12    13    2
    30    12     2    1
    31     9     4    1
    32    29    24   ar
    33    21    16   ar
@<TRIPOS>MOLECULE
*****
 30 33 0 0 0
SMALL
GASTEIGER

@<TRIPOS>ATOM
      1 C         137.5567  140.1323  161.6711 C.3     1  UNL1        0.0420
      2 C         138.4244  140.9661  162.5666 C.3     1  UNL1        0.1909
      3 O         139.3227  140.3040  163.5690 O.3     1  UNL1       -0.3501
      4 C         140.1904  141.1378  164.4645 C.3     1  UNL1        0.1141
      5 C         141.0581  141.9716  165.3599 C.3     1  UNL1        0.0463
      6 C         141.9564  141.3096  166.3622 C.3     1  UNL1        0.0746
      7 N         141.9869  139.8137  166.4691 N.3     1  UNL1       -0.2722
      8 C         141.1193  138.9799  165.5737 C.3     1  UNL1        0.0746
      9 C         140.2210  139.6420  164.5714 C.3     1  UNL1        0.0463
     10 C         140.1599  142.6337  164.3575 C.3     1  UNL1        0.1206
     11 N         139.2615  143.2958  163.3551 N.am    1  UNL1       -0.2748
     12 C         138.3938  142.4620  162.4597 C.2     1  UNL1        0.2529
     13 O         137.4955  143.1240  161.4573 O.2     1  UNL1       -0.2722
     14 C         142.8853  139.1516  167.4716 C.3     1  UNL1        0.0768
     15 C         142.6160  139.3085  168.9388 C.3     1  UNL1        0.0437
     16 C         141.6826  140.3798  169.4197 C.ar    1  UNL1       -0.0208
     17 C         140.2085  140.1126  169.4932 C.ar    1  UNL1       -0.0042
     18 C         139.2752  141.1839  169.9741 C.ar    1  UNL1       -0.0003
     19 C         139.8160  142.5223  170.3815 C.ar    1  UNL1       -0.0000
     20 C         141.2902  142.7895  170.3081 C.ar    1  UNL1       -0.0003
     21 C         142.2235  141.7183  169.8272 C.ar    1  UNL1       -0.0042
     22 C         139.2310  144.7916  163.2482 C.3     1  UNL1        0.0983
     23 C         140.3616  145.5193  162.5831 C.3     1  UNL1        0.0501
     24 C         141.7250  144.8964  162.5279 C.ar    1  UNL1        0.0070
     25 C         142.7179  145.1667  163.6194 C.ar    1  UNL1       -0.0020
     26 C         144.0813  144.5438  163.5641 C.ar    1  UNL1       -0.0002
     27 C         144.4519  143.6506  162.4175 C.ar    1  UNL1        0.0023
     28 C         143.4591  143.3802  161.3261 C.ar    1  UNL1        0.0293
     29 C         142.0956  144.0031  161.3813 C.ar    1  UNL1        0.1362
     30 F         141.1028  143.7328  160.2899 F       1  UNL1       -0.2045
@<TRIPOS>BOND
     1     1     2    1
     2     2     3    1
     3     3     4    1
     4     4     5    1
     5     5     6    1
     6     6     7    1
     7     7    14    1
     8    14    15    1
     9    15    16    1
    10    16    17   ar
    11    17    18   ar
    12    18    19   ar
    13    19    20   ar
    14    20    21   ar
    15     7     8    1
    16     8     9    1
    17     4    10    1
    18    10    11    1
    19    11    22    1
    20    22    23    1
    21    23    24    1
    22    24    25   ar
    23    25    26   ar
    24    26    27   ar
    25    27    28   ar
    26    28    29   ar
    27    29    30    1
    28    11    12   am
    29    12    13    2
    30    12     2    1
    31     9     4    1
    32    29    24   ar
    33    21    16   ar
@<TRIPOS>MOLECULE
*****
 30 33 0 0 0
SMALL
GASTEIGER

@<TRIPOS>ATOM
      1 C         137.3708  137.8155  167.1355 C.3     1  UNL1        0.0420
      2 C         138.1909  138.9344  166.5649 C.3     1  UNL1        0.1909
      3 O         138.2201  139.1626  165.0826 O.3     1  UNL1       -0.3501
      4 C         139.0402  140.2815  164.5120 C.3     1  UNL1        0.1141
      5 C         139.8603  141.4003  163.9414 C.3     1  UNL1        0.0463
      6 C         139.8895  141.6285  162.4592 C.3     1  UNL1        0.0746
      7 N         139.0986  140.7378  161.5475 N.3     1  UNL1       -0.2722
      8 C         138.2785  139.6189  162.1181 C.3     1  UNL1        0.0746
      9 C         138.2493  139.3908  163.6003 C.3     1  UNL1        0.0463
     10 C         139.8311  141.1722  165.4237 C.3     1  UNL1        0.1206
     11 N         139.8019  140.9440  166.9060 N.am    1  UNL1       -0.2748
     12 C         138.9818  139.8251  167.4765 C.2     1  UNL1        0.2529
     13 O         138.9526  139.5969  168.9588 O.2     1  UNL1       -0.2722
     14 C         139.1279  140.9660  160.0652 C.3     1  UNL1        0.0768
     15 C         140.2006  140.3325  159.2299 C.3     1  UNL1        0.0437
     16 C         141.4477  139.8109  159.8802 C.ar    1  UNL1       -0.0208
     17 C         141.5260  138.3756  160.3089 C.ar    1  UNL1       -0.0042
     18 C         142.7731  137.8541  160.9591 C.ar    1  UNL1       -0.0003
     19 C         143.9418  138.7679  161.1806 C.ar    1  UNL1       -0.0000
     20 C         143.8635  140.2032  160.7519 C.ar    1  UNL1       -0.0003
     21 C         142.6165  140.7247  160.1017 C.ar    1  UNL1       -0.0042
     22 C         140.5928  141.8346  167.8176 C.3     1  UNL1        0.0983
     23 C         142.0887  141.8760  167.7135 C.3     1  UNL1        0.0501
     24 C         142.8023  140.9359  166.7878 C.ar    1  UNL1        0.0070
     25 C         142.8563  139.4703  167.1026 C.ar    1  UNL1       -0.0020
     26 C         143.5699  138.5301  166.1769 C.ar    1  UNL1       -0.0002
     27 C         144.2296  139.0557  164.9364 C.ar    1  UNL1        0.0023
     28 C         144.1756  140.5213  164.6217 C.ar    1  UNL1        0.0293
     29 C         143.4620  141.4614  165.5474 C.ar    1  UNL1        0.1362
     30 F         143.4080  142.9270  165.2327 F       1  UNL1       -0.2045
@<TRIPOS>BOND
     1     1     2    1
     2     2     3    1
     3     3     4    1
     4     4     5    1
     5     5     6    1
     6     6     7    1
     7     7    14    1
     8    14    15    1
     9    15    16    1
    10    16    17   ar
    11    17    18   ar
    12    18    19   ar
    13    19    20   ar
    14    20    21   ar
    15     7     8    1
    16     8     9    1
    17     4    10    1
    18    10    11    1
    19    11    22    1
    20    22    23    1
    21    23    24    1
    22    24    25   ar
    23    25    26   ar
    24    26    27   ar
    25    27    28   ar
    26    28    29   ar
    27    29    30    1
    28    11    12   am
    29    12    13    2
    30    12     2    1
    31     9     4    1
    32    29    24   ar
    33    21    16   ar
