@<TRIPOS>MOLECULE
*****
 32 35 0 0 0
SMALL
GASTEIGER

@<TRIPOS>ATOM
      1 N         141.9470  139.7486  161.2922 N.am    1  UNL1       -0.2671
      2 C         142.5492  139.0319  162.4644 C.2     1  UNL1        0.3078
      3 O         143.5927  137.9774  162.2432 O.2     1  UNL1       -0.2522
      4 N         142.1079  139.3698  163.8575 N.am    1  UNL1       -0.2605
      5 C         142.7101  138.6532  165.0297 C.3     1  UNL1        0.1164
      6 C         142.2688  138.9911  166.4228 C.3     1  UNL1        0.1137
      7 N         141.2252  140.0457  166.6440 N.pl3   1  UNL1       -0.2901
      8 C         140.6230  140.7624  165.4719 C.3     1  UNL1        0.0941
      9 C         139.5795  141.8170  165.6931 C.3     1  UNL1        0.0233
     10 C         141.0644  140.4244  164.0787 C.3     1  UNL1        0.1147
     11 H         141.2622  140.4408  161.4374 H       1  UNL1        0.1565
     12 C         140.7839  140.3836  168.0372 C.ar    1  UNL1        0.1544
     13 N         139.4739  139.8679  168.5548 N.ar    1  UNL1       -0.1974
     14 C         139.0326  140.2057  169.9479 C.ar    1  UNL1        0.2154
     15 N         137.7225  139.6900  170.4656 N.pl3   1  UNL1       -0.3274
     16 N         139.9012  141.0594  170.8237 N.ar    1  UNL1       -0.2057
     17 C         141.2112  141.5751  170.3060 C.ar    1  UNL1        0.1353
     18 S         142.2711  142.4315  170.9332 S.2     1  UNL1       -0.0453
     19 C         143.3675  142.6228  169.9276 C.ar    1  UNL1        0.1360
     20 N         142.9852  141.8847  168.6789 N.ar    1  UNL1       -0.2319
     21 C         141.6526  141.2372  168.9128 C.ar    1  UNL1        0.1372
     22 H         137.1524  139.1297  169.8909 H       1  UNL1        0.1452
     23 H         137.4328  139.9117  171.3800 H       1  UNL1        0.1452
     24 C         143.2711  138.7349  157.1127 C.ar    1  UNL1        0.2247
     25 C         142.2327  137.8946  157.7951 C.ar    1  UNL1        0.0590
     26 C         141.7913  138.2324  159.1882 C.ar    1  UNL1        0.0207
     27 C         142.3884  139.4107  159.8991 C.ar    1  UNL1        0.0654
     28 C         143.4268  140.2511  159.2167 C.ar    1  UNL1        0.0759
     29 C         144.0239  141.4293  159.9275 C.3     1  UNL1        0.0535
     30 N         143.8681  139.9131  157.8235 N.ar    1  UNL1       -0.2148
     31 C         144.1111  136.9915  155.3792 C.3     1  UNL1        0.2542
     32 O         143.7124  138.3970  155.7194 O.3     1  UNL1       -0.4561
@<TRIPOS>BOND
     1    31    32    1
     2    32    24    1
     3    24    25   ar
     4    25    26   ar
     5    26    27   ar
     6    27     1    1
     7     1     2   am
     8     2     3    2
     9     2     4   am
    10     4     5    1
    11     5     6    1
    12     6     7    1
    13     7    12    1
    14    12    13   ar
    15    13    14   ar
    16    14    15    1
    17    14    16   ar
    18    16    17   ar
    19    17    18   ar
    20    18    19   ar
    21    19    20   ar
    22    20    21   ar
    23     7     8    1
    24     8     9    1
    25     8    10    1
    26    27    28   ar
    27    28    29    1
    28    28    30   ar
    29    30    24   ar
    30    10     4    1
    31    21    12   ar
    32    21    17   ar
    33     1    11    1
    34    15    22    1
    35    15    23    1
@<TRIPOS>MOLECULE
*****
 32 35 0 0 0
SMALL
GASTEIGER

@<TRIPOS>ATOM
      1 N         141.7706  143.0962  161.4273 N.am    1  UNL1       -0.2671
      2 C         142.7745  143.4133  162.4959 C.2     1  UNL1        0.3078
      3 O         143.9265  144.3257  162.1955 O.2     1  UNL1       -0.2522
      4 N         142.6263  142.8181  163.8646 N.am    1  UNL1       -0.2605
      5 C         143.6302  143.1352  164.9332 C.3     1  UNL1        0.1164
      6 C         143.4820  142.5400  166.3019 C.3     1  UNL1        0.1137
      7 N         142.3299  141.6276  166.6023 N.pl3   1  UNL1       -0.2901
      8 C         141.3260  141.3104  165.5339 C.3     1  UNL1        0.0941
      9 C         140.1740  140.3980  165.8343 C.3     1  UNL1        0.0233
     10 C         141.4743  141.9057  164.1650 C.3     1  UNL1        0.1147
     11 H         141.0144  142.4973  161.6245 H       1  UNL1        0.1565
     12 C         142.1817  141.0323  167.9712 C.ar    1  UNL1        0.1544
     13 N         142.8237  139.7145  168.2895 N.ar    1  UNL1       -0.1974
     14 C         142.6755  139.1193  169.6583 C.ar    1  UNL1        0.2154
     15 N         143.3175  137.8014  169.9766 N.pl3   1  UNL1       -0.3274
     16 N         141.8854  139.8419  170.7089 N.ar    1  UNL1       -0.2057
     17 C         141.2435  141.1597  170.3906 C.ar    1  UNL1        0.1353
     18 S         140.4114  142.0960  171.2157 S.2     1  UNL1       -0.0453
     19 C         140.0453  143.2700  170.3568 C.ar    1  UNL1        0.1360
     20 N         140.6511  143.0592  169.0008 N.ar    1  UNL1       -0.2319
     21 C         141.3917  141.7549  169.0217 C.ar    1  UNL1        0.1372
     22 H         143.8361  137.3272  169.2871 H       1  UNL1        0.1452
     23 H         143.2203  137.4108  170.8750 H       1  UNL1        0.1452
     24 C         142.2151  144.8819  157.3209 C.ar    1  UNL1        0.2247
     25 C         142.9608  143.6308  157.6794 C.ar    1  UNL1        0.0590
     26 C         142.8127  143.0355  159.0482 C.ar    1  UNL1        0.0207
     27 C         141.9188  143.6914  160.0586 C.ar    1  UNL1        0.0654
     28 C         141.1730  144.9426  159.7000 C.ar    1  UNL1        0.0759
     29 C         140.2791  145.5985  160.7103 C.3     1  UNL1        0.0535
     30 N         141.3212  145.5378  158.3312 N.ar    1  UNL1       -0.2148
     31 C         142.8159  144.6207  154.8067 C.3     1  UNL1        0.2542
     32 O         142.3633  145.4771  155.9520 O.3     1  UNL1       -0.4561
@<TRIPOS>BOND
     1    31    32    1
     2    32    24    1
     3    24    25   ar
     4    25    26   ar
     5    26    27   ar
     6    27     1    1
     7     1     2   am
     8     2     3    2
     9     2     4   am
    10     4     5    1
    11     5     6    1
    12     6     7    1
    13     7    12    1
    14    12    13   ar
    15    13    14   ar
    16    14    15    1
    17    14    16   ar
    18    16    17   ar
    19    17    18   ar
    20    18    19   ar
    21    19    20   ar
    22    20    21   ar
    23     7     8    1
    24     8     9    1
    25     8    10    1
    26    27    28   ar
    27    28    29    1
    28    28    30   ar
    29    30    24   ar
    30    10     4    1
    31    21    12   ar
    32    21    17   ar
    33     1    11    1
    34    15    22    1
    35    15    23    1
@<TRIPOS>MOLECULE
*****
 32 35 0 0 0
SMALL
GASTEIGER

@<TRIPOS>ATOM
      1 N         140.4286  140.3847  161.2173 N.am    1  UNL1       -0.2671
      2 C         139.4878  140.0364  162.3325 C.2     1  UNL1        0.3078
      3 O         138.2444  139.2479  162.0459 O.2     1  UNL1       -0.2522
      4 N         139.7905  140.4764  163.7341 N.am    1  UNL1       -0.2605
      5 C         138.8497  140.1280  164.8493 C.3     1  UNL1        0.1164
      6 C         139.1524  140.5680  166.2509 C.3     1  UNL1        0.1137
      7 N         140.3960  141.3564  166.5375 N.pl3   1  UNL1       -0.2901
      8 C         141.3368  141.7048  165.4224 C.3     1  UNL1        0.0941
      9 C         142.5802  142.4933  165.7090 C.3     1  UNL1        0.0233
     10 C         141.0340  141.2648  164.0207 C.3     1  UNL1        0.1147
     11 H         141.2448  140.9022  161.4053 H       1  UNL1        0.1565
     12 C         140.6987  141.7965  167.9392 C.ar    1  UNL1        0.1544
     13 N         140.2404  143.1420  168.4184 N.ar    1  UNL1       -0.1974
     14 C         140.5431  143.5820  169.8200 C.ar    1  UNL1        0.2154
     15 N         140.0848  144.9276  170.2992 N.pl3   1  UNL1       -0.3274
     16 N         141.3040  142.6765  170.7426 N.ar    1  UNL1       -0.2057
     17 C         141.7622  141.3310  170.2635 C.ar    1  UNL1        0.1353
     18 S         142.5252  140.2310  170.9401 S.2     1  UNL1       -0.0453
     19 C         142.6941  139.1111  169.9566 C.ar    1  UNL1        0.1360
     20 N         142.0355  139.5190  168.6721 N.ar    1  UNL1       -0.2319
     21 C         141.4596  140.8910  168.8618 C.ar    1  UNL1        0.1372
     22 H         139.5854  145.5219  169.6937 H       1  UNL1        0.1452
     23 H         140.2834  145.2164  171.2192 H       1  UNL1        0.1452
     24 C         139.5205  139.0647  157.0122 C.ar    1  UNL1        0.2247
     25 C         140.4260  138.2400  157.8782 C.ar    1  UNL1        0.0590
     26 C         140.7287  138.6799  159.2799 C.ar    1  UNL1        0.0207
     27 C         140.1260  139.9447  159.8157 C.ar    1  UNL1        0.0654
     28 C         139.2205  140.7695  158.9496 C.ar    1  UNL1        0.0759
     29 C         138.6177  142.0343  159.4853 C.3     1  UNL1        0.0535
     30 N         138.9178  140.3295  157.5479 N.ar    1  UNL1       -0.2148
     31 C         139.0269  137.1683  155.3064 C.3     1  UNL1        0.2542
     32 O         139.2178  138.6246  155.6105 O.3     1  UNL1       -0.4561
@<TRIPOS>BOND
     1    31    32    1
     2    32    24    1
     3    24    25   ar
     4    25    26   ar
     5    26    27   ar
     6    27     1    1
     7     1     2   am
     8     2     3    2
     9     2     4   am
    10     4     5    1
    11     5     6    1
    12     6     7    1
    13     7    12    1
    14    12    13   ar
    15    13    14   ar
    16    14    15    1
    17    14    16   ar
    18    16    17   ar
    19    17    18   ar
    20    18    19   ar
    21    19    20   ar
    22    20    21   ar
    23     7     8    1
    24     8     9    1
    25     8    10    1
    26    27    28   ar
    27    28    29    1
    28    28    30   ar
    29    30    24   ar
    30    10     4    1
    31    21    12   ar
    32    21    17   ar
    33     1    11    1
    34    15    22    1
    35    15    23    1
@<TRIPOS>MOLECULE
*****
 32 35 0 0 0
SMALL
GASTEIGER

@<TRIPOS>ATOM
      1 N         140.2760  140.0891  164.7135 N.am    1  UNL1       -0.2671
      2 C         141.3208  139.1475  164.1921 C.2     1  UNL1        0.3078
      3 O         142.2201  138.4213  165.1481 O.2     1  UNL1       -0.2522
      4 N         141.4664  138.9322  162.7149 N.am    1  UNL1       -0.2605
      5 C         142.5112  137.9906  162.1935 C.3     1  UNL1        0.1164
      6 C         142.6568  137.7753  160.7162 C.3     1  UNL1        0.1137
      7 N         141.7574  138.5016  159.7602 N.pl3   1  UNL1       -0.2901
      8 C         140.7126  139.4431  160.2815 C.3     1  UNL1        0.0941
      9 C         139.8133  140.1693  159.3256 C.3     1  UNL1        0.0233
     10 C         140.5671  139.6584  161.7589 C.3     1  UNL1        0.1147
     11 H         139.6857  140.5657  164.0861 H       1  UNL1        0.1565
     12 C         141.9030  138.2863  158.2829 C.ar    1  UNL1        0.1544
     13 N         140.9846  137.3393  157.5689 N.ar    1  UNL1       -0.1974
     14 C         141.1301  137.1240  156.0917 C.ar    1  UNL1        0.2154
     15 N         140.2116  136.1769  155.3777 N.pl3   1  UNL1       -0.3274
     16 N         142.1941  137.8556  155.3283 N.ar    1  UNL1       -0.2057
     17 C         143.1125  138.8026  156.0422 C.ar    1  UNL1        0.1353
     18 S         144.2460  139.6577  155.5586 S.2     1  UNL1       -0.0453
     19 C         144.8009  140.4015  156.7370 C.ar    1  UNL1        0.1360
     20 N         144.0105  140.0061  157.9489 N.ar    1  UNL1       -0.2319
     21 C         142.9669  139.0179  157.5196 C.ar    1  UNL1        0.1372
     22 H         139.5133  135.6967  155.8787 H       1  UNL1        0.1452
     23 H         140.3072  136.0356  154.4081 H       1  UNL1        0.1452
     24 C         139.8393  140.7349  169.1455 C.ar    1  UNL1        0.2247
     25 C         140.8639  141.5107  168.3718 C.ar    1  UNL1        0.0590
     26 C         141.0095  141.2954  166.8945 C.ar    1  UNL1        0.0207
     27 C         140.1304  140.3043  166.1908 C.ar    1  UNL1        0.0654
     28 C         139.1058  139.5286  166.9645 C.ar    1  UNL1        0.0759
     29 C         138.2268  138.5375  166.2608 C.3     1  UNL1        0.0535
     30 N         138.9603  139.7439  168.4418 N.ar    1  UNL1       -0.2148
     31 C         140.8127  141.5733  171.4037 C.3     1  UNL1        0.2542
     32 O         139.6938  140.9503  170.6228 O.3     1  UNL1       -0.4561
@<TRIPOS>BOND
     1    31    32    1
     2    32    24    1
     3    24    25   ar
     4    25    26   ar
     5    26    27   ar
     6    27     1    1
     7     1     2   am
     8     2     3    2
     9     2     4   am
    10     4     5    1
    11     5     6    1
    12     6     7    1
    13     7    12    1
    14    12    13   ar
    15    13    14   ar
    16    14    15    1
    17    14    16   ar
    18    16    17   ar
    19    17    18   ar
    20    18    19   ar
    21    19    20   ar
    22    20    21   ar
    23     7     8    1
    24     8     9    1
    25     8    10    1
    26    27    28   ar
    27    28    29    1
    28    28    30   ar
    29    30    24   ar
    30    10     4    1
    31    21    12   ar
    32    21    17   ar
    33     1    11    1
    34    15    22    1
    35    15    23    1
@<TRIPOS>MOLECULE
*****
 32 35 0 0 0
SMALL
GASTEIGER

@<TRIPOS>ATOM
      1 N         140.6399  140.0921  164.6070 N.am    1  UNL1       -0.2671
      2 C         141.5125  139.0085  164.0462 C.2     1  UNL1        0.3078
      3 O         142.1489  138.0076  164.9645 O.2     1  UNL1       -0.2522
      4 N         141.7486  138.9258  162.5673 N.am    1  UNL1       -0.2605
      5 C         142.6212  137.8421  162.0065 C.3     1  UNL1        0.1164
      6 C         142.8573  137.7594  160.5276 C.3     1  UNL1        0.1137
      7 N         142.2209  138.7604  159.6093 N.pl3   1  UNL1       -0.2901
      8 C         141.3483  139.8440  160.1700 C.3     1  UNL1        0.0941
      9 C         140.7119  140.8448  159.2518 C.3     1  UNL1        0.0233
     10 C         141.1122  139.9266  161.6491 C.3     1  UNL1        0.1147
     11 H         140.2221  140.7491  164.0044 H       1  UNL1        0.1565
     12 C         142.4570  138.6776  158.1303 C.ar    1  UNL1        0.1544
     13 N         143.7787  139.0956  157.5573 N.ar    1  UNL1       -0.1974
     14 C         144.0149  139.0128  156.0784 C.ar    1  UNL1        0.2154
     15 N         145.3367  139.4308  155.5054 N.pl3   1  UNL1       -0.3274
     16 N         142.9293  138.5121  155.1724 N.ar    1  UNL1       -0.2057
     17 C         141.6076  138.0942  155.7453 C.ar    1  UNL1        0.1353
     18 S         140.3588  137.5642  155.1054 S.2     1  UNL1       -0.0453
     19 C         139.3508  137.3194  156.1889 C.ar    1  UNL1        0.1360
     20 N         139.9766  137.6981  157.4985 N.ar    1  UNL1       -0.2319
     21 C         141.3715  138.1769  157.2243 C.ar    1  UNL1        0.1372
     22 H         146.0492  139.7595  156.1001 H       1  UNL1        0.1452
     23 H         145.4917  139.3765  154.5347 H       1  UNL1        0.1452
     24 C         139.9314  140.3403  169.0439 C.ar    1  UNL1        0.2247
     25 C         141.1149  141.0307  168.4336 C.ar    1  UNL1        0.0590
     26 C         141.3511  140.9481  166.9547 C.ar    1  UNL1        0.0207
     27 C         140.4037  140.1748  166.0859 C.ar    1  UNL1        0.0654
     28 C         139.2202  139.4843  166.6963 C.ar    1  UNL1        0.0759
     29 C         138.2728  138.7111  165.8276 C.3     1  UNL1        0.0535
     30 N         138.9840  139.5670  168.1753 N.ar    1  UNL1       -0.2148
     31 C         140.7412  141.0199  171.4172 C.3     1  UNL1        0.2542
     32 O         139.6953  140.4230  170.5229 O.3     1  UNL1       -0.4561
@<TRIPOS>BOND
     1    31    32    1
     2    32    24    1
     3    24    25   ar
     4    25    26   ar
     5    26    27   ar
     6    27     1    1
     7     1     2   am
     8     2     3    2
     9     2     4   am
    10     4     5    1
    11     5     6    1
    12     6     7    1
    13     7    12    1
    14    12    13   ar
    15    13    14   ar
    16    14    15    1
    17    14    16   ar
    18    16    17   ar
    19    17    18   ar
    20    18    19   ar
    21    19    20   ar
    22    20    21   ar
    23     7     8    1
    24     8     9    1
    25     8    10    1
    26    27    28   ar
    27    28    29    1
    28    28    30   ar
    29    30    24   ar
    30    10     4    1
    31    21    12   ar
    32    21    17   ar
    33     1    11    1
    34    15    22    1
    35    15    23    1
@<TRIPOS>MOLECULE
*****
 32 35 0 0 0
SMALL
GASTEIGER

@<TRIPOS>ATOM
      1 N         141.8537  140.6798  164.6478 N.am    1  UNL1       -0.2671
      2 C         142.6771  139.5660  164.0719 C.2     1  UNL1        0.3078
      3 O         143.5733  138.7580  164.9628 O.2     1  UNL1       -0.2522
      4 N         142.6042  139.2603  162.6053 N.am    1  UNL1       -0.2605
      5 C         143.4276  138.1465  162.0294 C.3     1  UNL1        0.1164
      6 C         143.3547  137.8408  160.5628 C.3     1  UNL1        0.1137
      7 N         142.4583  138.6489  159.6718 N.pl3   1  UNL1       -0.2901
      8 C         141.6350  139.7626  160.2476 C.3     1  UNL1        0.0941
      9 C         140.7387  140.5707  159.3567 C.3     1  UNL1        0.0233
     10 C         141.7079  140.0683  161.7143 C.3     1  UNL1        0.1147
     11 H         141.2654  141.2102  164.0630 H       1  UNL1        0.1565
     12 C         142.3855  138.3431  158.2051 C.ar    1  UNL1        0.1544
     13 N         141.3486  137.3904  157.6882 N.ar    1  UNL1       -0.1974
     14 C         141.2757  137.0847  156.2216 C.ar    1  UNL1        0.2154
     15 N         140.2387  136.1319  155.7047 N.pl3   1  UNL1       -0.3274
     16 N         142.2397  137.7316  155.2717 N.ar    1  UNL1       -0.2057
     17 C         143.2766  138.6843  155.7886 C.ar    1  UNL1        0.1353
     18 S         144.3527  139.4682  155.0976 S.2     1  UNL1       -0.0453
     19 C         145.0907  140.2584  156.1373 C.ar    1  UNL1        0.1360
     20 N         144.4707  139.9629  157.4708 N.ar    1  UNL1       -0.2319
     21 C         143.3495  138.9901  157.2553 C.ar    1  UNL1        0.1372
     22 H         139.6060  135.7073  156.3281 H       1  UNL1        0.1452
     23 H         140.1909  135.9312  154.7420 H       1  UNL1        0.1452
     24 C         142.0724  141.5970  169.0478 C.ar    1  UNL1        0.2247
     25 C         141.1145  140.5580  168.5449 C.ar    1  UNL1        0.0590
     26 C         141.0415  140.2522  167.0783 C.ar    1  UNL1        0.0207
     27 C         141.9266  140.9855  166.1144 C.ar    1  UNL1        0.0654
     28 C         142.8845  142.0246  166.6173 C.ar    1  UNL1        0.0759
     29 C         143.7695  142.7579  165.6534 C.3     1  UNL1        0.0535
     30 N         142.9574  142.3303  168.0840 N.ar    1  UNL1       -0.2148
     31 C         141.1132  141.3447  171.4491 C.3     1  UNL1        0.2542
     32 O         142.1453  141.9027  170.5145 O.3     1  UNL1       -0.4561
@<TRIPOS>BOND
     1    31    32    1
     2    32    24    1
     3    24    25   ar
     4    25    26   ar
     5    26    27   ar
     6    27     1    1
     7     1     2   am
     8     2     3    2
     9     2     4   am
    10     4     5    1
    11     5     6    1
    12     6     7    1
    13     7    12    1
    14    12    13   ar
    15    13    14   ar
    16    14    15    1
    17    14    16   ar
    18    16    17   ar
    19    17    18   ar
    20    18    19   ar
    21    19    20   ar
    22    20    21   ar
    23     7     8    1
    24     8     9    1
    25     8    10    1
    26    27    28   ar
    27    28    29    1
    28    28    30   ar
    29    30    24   ar
    30    10     4    1
    31    21    12   ar
    32    21    17   ar
    33     1    11    1
    34    15    22    1
    35    15    23    1
@<TRIPOS>MOLECULE
*****
 32 35 0 0 0
SMALL
GASTEIGER

@<TRIPOS>ATOM
      1 N         142.2251  140.9540  161.2040 N.am    1  UNL1       -0.2671
      2 C         141.0177  140.6557  162.0426 C.2     1  UNL1        0.3078
      3 O         139.8078  140.0263  161.4181 O.2     1  UNL1       -0.2522
      4 N         141.0202  140.9866  163.5055 N.am    1  UNL1       -0.2605
      5 C         139.8128  140.6883  164.3441 C.3     1  UNL1        0.1164
      6 C         139.8153  141.0193  165.8071 C.3     1  UNL1        0.1137
      7 N         141.0253  141.6487  166.4316 N.pl3   1  UNL1       -0.2901
      8 C         142.2327  141.9470  165.5931 C.3     1  UNL1        0.0941
      9 C         143.4427  142.5763  166.2176 C.3     1  UNL1        0.0233
     10 C         142.2301  141.6160  164.1300 C.3     1  UNL1        0.1147
     11 H         143.0193  141.3670  161.6138 H       1  UNL1        0.1565
     12 C         141.0278  141.9797  167.8946 C.ar    1  UNL1        0.1544
     13 N         140.4693  143.2887  168.3684 N.ar    1  UNL1       -0.1974
     14 C         140.4718  143.6197  169.8313 C.ar    1  UNL1        0.2154
     15 N         139.9133  144.9289  170.3051 N.pl3   1  UNL1       -0.3274
     16 N         141.0328  142.6417  170.8207 N.ar    1  UNL1       -0.2057
     17 C         141.5913  141.3326  170.3469 C.ar    1  UNL1        0.1353
     18 S         142.2068  140.1791  171.0821 S.2     1  UNL1       -0.0453
     19 C         142.5847  139.1352  170.0735 C.ar    1  UNL1        0.1360
     20 N         142.2028  139.6435  168.7149 N.ar    1  UNL1       -0.2319
     21 C         141.5888  141.0016  168.8839 C.ar    1  UNL1        0.1372
     22 H         139.5451  145.5708  169.6558 H       1  UNL1        0.1452
     23 H         139.9150  145.1461  171.2653 H       1  UNL1        0.1452
     24 C         142.2175  139.9609  156.8149 C.ar    1  UNL1        0.2247
     25 C         141.6527  141.2670  157.2894 C.ar    1  UNL1        0.0590
     26 C         141.6552  141.5981  158.7524 C.ar    1  UNL1        0.0207
     27 C         142.2226  140.6230  159.7410 C.ar    1  UNL1        0.0654
     28 C         142.7874  139.3168  159.2665 C.ar    1  UNL1        0.0759
     29 C         143.3548  138.3417  160.2551 C.3     1  UNL1        0.0535
     30 N         142.7849  138.9858  157.8035 N.ar    1  UNL1       -0.2148
     31 C         142.6467  138.2698  154.8899 C.3     1  UNL1        0.2542
     32 O         142.2150  139.6299  155.3519 O.3     1  UNL1       -0.4561
@<TRIPOS>BOND
     1    31    32    1
     2    32    24    1
     3    24    25   ar
     4    25    26   ar
     5    26    27   ar
     6    27     1    1
     7     1     2   am
     8     2     3    2
     9     2     4   am
    10     4     5    1
    11     5     6    1
    12     6     7    1
    13     7    12    1
    14    12    13   ar
    15    13    14   ar
    16    14    15    1
    17    14    16   ar
    18    16    17   ar
    19    17    18   ar
    20    18    19   ar
    21    19    20   ar
    22    20    21   ar
    23     7     8    1
    24     8     9    1
    25     8    10    1
    26    27    28   ar
    27    28    29    1
    28    28    30   ar
    29    30    24   ar
    30    10     4    1
    31    21    12   ar
    32    21    17   ar
    33     1    11    1
    34    15    22    1
    35    15    23    1
@<TRIPOS>MOLECULE
*****
 32 35 0 0 0
SMALL
GASTEIGER

@<TRIPOS>ATOM
      1 N         141.5467  140.0602  164.7941 N.am    1  UNL1       -0.2671
      2 C         140.5501  139.1189  164.1851 C.2     1  UNL1        0.3078
      3 O         139.6906  138.2630  165.0674 O.2     1  UNL1       -0.2522
      4 N         140.4130  139.0337  162.6939 N.am    1  UNL1       -0.2605
      5 C         139.4164  138.0924  162.0849 C.3     1  UNL1        0.1164
      6 C         139.2793  138.0072  160.5937 C.3     1  UNL1        0.1137
      7 N         140.1388  138.8632  159.7113 N.pl3   1  UNL1       -0.2901
      8 C         141.1354  139.8045  160.3202 C.3     1  UNL1        0.0941
      9 C         141.9949  140.6604  159.4378 C.3     1  UNL1        0.0233
     10 C         141.2725  139.8897  161.8115 C.3     1  UNL1        0.1147
     11 H         142.1109  140.6220  164.2150 H       1  UNL1        0.1565
     12 C         140.0017  138.7780  158.2200 C.ar    1  UNL1        0.1544
     13 N         138.8475  139.4462  157.5335 N.ar    1  UNL1       -0.1974
     14 C         138.7103  139.3609  156.0423 C.ar    1  UNL1        0.2154
     15 N         137.5560  140.0291  155.3558 N.pl3   1  UNL1       -0.3274
     16 N         139.7275  138.6074  155.2374 N.ar    1  UNL1       -0.2057
     17 C         140.8817  137.9392  155.9238 C.ar    1  UNL1        0.1353
     18 S         142.0316  137.1323  155.3980 S.2     1  UNL1       -0.0453
     19 C         142.8794  136.7188  156.5643 C.ar    1  UNL1        0.1360
     20 N         142.2535  137.2702  157.8109 N.ar    1  UNL1       -0.2319
     21 C         141.0188  138.0245  157.4151 C.ar    1  UNL1        0.1372
     22 H         136.8884  140.5237  155.8841 H       1  UNL1        0.1452
     23 H         137.4660  139.9732  154.3771 H       1  UNL1        0.1452
     24 C         141.9581  140.3159  169.2679 C.ar    1  UNL1        0.2247
     25 C         140.9389  141.1578  168.5591 C.ar    1  UNL1        0.0590
     26 C         140.8017  141.0726  167.0679 C.ar    1  UNL1        0.0207
     27 C         141.6838  140.1454  166.2853 C.ar    1  UNL1        0.0654
     28 C         142.7031  139.3035  166.9942 C.ar    1  UNL1        0.0759
     29 C         143.5853  138.3764  166.2117 C.3     1  UNL1        0.0535
     30 N         142.8402  139.3888  168.4855 N.ar    1  UNL1       -0.2148
     31 C         141.8207  141.6961  171.4648 C.3     1  UNL1        0.2542
     32 O         142.0951  140.4012  170.7592 O.3     1  UNL1       -0.4561
@<TRIPOS>BOND
     1    31    32    1
     2    32    24    1
     3    24    25   ar
     4    25    26   ar
     5    26    27   ar
     6    27     1    1
     7     1     2   am
     8     2     3    2
     9     2     4   am
    10     4     5    1
    11     5     6    1
    12     6     7    1
    13     7    12    1
    14    12    13   ar
    15    13    14   ar
    16    14    15    1
    17    14    16   ar
    18    16    17   ar
    19    17    18   ar
    20    18    19   ar
    21    19    20   ar
    22    20    21   ar
    23     7     8    1
    24     8     9    1
    25     8    10    1
    26    27    28   ar
    27    28    29    1
    28    28    30   ar
    29    30    24   ar
    30    10     4    1
    31    21    12   ar
    32    21    17   ar
    33     1    11    1
    34    15    22    1
    35    15    23    1
@<TRIPOS>MOLECULE
*****
 32 35 0 0 0
SMALL
GASTEIGER

@<TRIPOS>ATOM
      1 N         141.7085  140.5841  164.5810 N.am    1  UNL1       -0.2671
      2 C         140.3999  139.9884  164.1533 C.2     1  UNL1        0.3078
      3 O         139.3822  139.5962  165.1830 O.2     1  UNL1       -0.2522
      4 N         140.1091  139.7850  162.6960 N.am    1  UNL1       -0.2605
      5 C         138.8006  139.1893  162.2682 C.3     1  UNL1        0.1164
      6 C         138.5098  138.9859  160.8109 C.3     1  UNL1        0.1137
      7 N         139.5276  139.3781  159.7811 N.pl3   1  UNL1       -0.2901
      8 C         140.8361  139.9738  160.2088 C.3     1  UNL1        0.0941
      9 C         141.8538  140.3660  159.1790 C.3     1  UNL1        0.0233
     10 C         141.1268  140.1772  161.6662 C.3     1  UNL1        0.1147
     11 H         142.3765  140.8415  163.9052 H       1  UNL1        0.1565
     12 C         139.2367  139.1747  158.3237 C.ar    1  UNL1        0.1544
     13 N         139.6192  137.8876  157.6551 N.ar    1  UNL1       -0.1974
     14 C         139.3284  137.6841  156.1978 C.ar    1  UNL1        0.2154
     15 N         139.7109  136.3969  155.5292 N.pl3   1  UNL1       -0.3274
     16 N         138.6551  138.7678  155.4089 N.ar    1  UNL1       -0.2057
     17 C         138.2726  140.0549  156.0774 C.ar    1  UNL1        0.1353
     18 S         137.6030  141.2939  155.5610 S.2     1  UNL1       -0.0453
     19 C         137.4800  142.2630  156.6992 C.ar    1  UNL1        0.1360
     20 N         138.0736  141.6231  157.9191 N.ar    1  UNL1       -0.2319
     21 C         138.5634  140.2584  157.5348 C.ar    1  UNL1        0.1372
     22 H         140.1528  135.6856  156.0469 H       1  UNL1        0.1452
     23 H         139.5200  136.2634  154.5726 H       1  UNL1        0.1452
     24 C         142.5809  141.1943  168.9532 C.ar    1  UNL1        0.2247
     25 C         141.9133  142.2805  168.1629 C.ar    1  UNL1        0.0590
     26 C         141.6225  142.0771  166.7055 C.ar    1  UNL1        0.0207
     27 C         141.9993  140.7875  166.0384 C.ar    1  UNL1        0.0654
     28 C         142.6669  139.7013  166.8287 C.ar    1  UNL1        0.0759
     29 C         143.0437  138.4117  166.1617 C.3     1  UNL1        0.0535
     30 N         142.9577  139.9048  168.2862 N.ar    1  UNL1       -0.2148
     31 C         141.8422  141.0333  171.4389 C.3     1  UNL1        0.2542
     32 O         142.8717  141.3978  170.4107 O.3     1  UNL1       -0.4561
@<TRIPOS>BOND
     1    31    32    1
     2    32    24    1
     3    24    25   ar
     4    25    26   ar
     5    26    27   ar
     6    27     1    1
     7     1     2   am
     8     2     3    2
     9     2     4   am
    10     4     5    1
    11     5     6    1
    12     6     7    1
    13     7    12    1
    14    12    13   ar
    15    13    14   ar
    16    14    15    1
    17    14    16   ar
    18    16    17   ar
    19    17    18   ar
    20    18    19   ar
    21    19    20   ar
    22    20    21   ar
    23     7     8    1
    24     8     9    1
    25     8    10    1
    26    27    28   ar
    27    28    29    1
    28    28    30   ar
    29    30    24   ar
    30    10     4    1
    31    21    12   ar
    32    21    17   ar
    33     1    11    1
    34    15    22    1
    35    15    23    1
