@<TRIPOS>MOLECULE
*****
 35 39 0 0 0
SMALL
GASTEIGER

@<TRIPOS>ATOM
      1 C         141.4733  145.6805  158.3705 C.2     1  UNL1        0.0036
      2 C         141.2058  145.3802  159.8156 C.2     1  UNL1        0.0036
      3 C         141.0584  144.6026  161.0898 C.3     1  UNL1        0.1686
      4 O         141.0491  143.4416  162.0395 O.3     1  UNL1       -0.3442
      5 C         141.1788  142.0372  162.5501 C.3     1  UNL1        0.1721
      6 C         141.4320  140.5587  162.5601 C.ar    1  UNL1        0.0425
      7 C         141.7781  139.1846  162.0682 C.ar    1  UNL1        0.0158
      8 C         142.1753  138.0805  161.1338 C.ar    1  UNL1        0.0504
      9 C         141.9383  137.6018  162.5799 C.ar    1  UNL1        0.0178
     10 C         141.5378  138.3027  163.8443 C.ar    1  UNL1        0.0379
     11 C         141.2846  139.7811  163.8343 C.ar    1  UNL1        0.1370
     12 N         142.5759  137.3796  159.8694 N.pl3   1  UNL1       -0.2825
     13 C         142.9814  137.2965  158.0998 C.ar    1  UNL1        0.2207
     14 N         143.3275  135.9224  157.6080 N.ar    1  UNL1       -0.2120
     15 C         143.6829  135.7093  156.1664 C.ar    1  UNL1        0.1034
     16 C         143.6923  136.8704  155.2167 C.ar    1  UNL1        0.0404
     17 C         143.3462  138.2445  155.7086 C.ar    1  UNL1        0.0917
     18 N         142.9907  138.4575  157.1501 N.ar    1  UNL1       -0.2130
     19 C         143.3556  139.4055  154.7589 C.ar    1  UNL1        0.0470
     20 C         143.6336  139.6551  153.3062 C.ar    1  UNL1        0.0082
     21 C         143.4392  141.1188  153.0418 C.ar    1  UNL1        0.0052
     22 C         142.9727  142.2884  154.2383 C.ar    1  UNL1        0.0369
     23 S         143.2259  140.8099  154.2483 S.2     1  UNL1       -0.0873
     24 C         142.6266  143.6625  154.7302 C.3     1  UNL1        0.1754
     25 O         142.2293  144.7666  155.6647 O.3     1  UNL1       -0.3437
     26 C         141.8288  145.4675  156.9290 C.3     1  UNL1        0.1686
     27 H         142.6733  136.4440  160.1599 H       1  UNL1        0.1551
     28 O         140.8841  140.4820  165.0986 O.3     1  UNL1       -0.4742
     29 C         139.4978  140.3094  165.6449 C.3     1  UNL1        0.2226
     30 C         138.3165  140.8001  164.8615 C.3     1  UNL1        0.1200
     31 N         138.2601  142.2278  164.4049 N.3     1  UNL1       -0.2696
     32 C         137.5565  142.7350  163.1812 C.3     1  UNL1        0.0722
     33 C         137.7590  144.2197  163.1120 C.3     1  UNL1        0.0188
     34 C         138.5878  144.6300  164.2930 C.3     1  UNL1        0.0188
     35 C         138.8975  143.3989  165.0921 C.3     1  UNL1        0.0722
@<TRIPOS>BOND
     1     1     2    2
     2     2     3    1
     3     3     4    1
     4     4     5    1
     5     5     6    1
     6     6     7   ar
     7     7     8   ar
     8     8     9   ar
     9     9    10   ar
    10    10    11   ar
    11    11    28    1
    12    28    29    1
    13    29    30    1
    14    30    31    1
    15    31    32    1
    16    32    33    1
    17    33    34    1
    18    34    35    1
    19     8    12    1
    20    12    13    1
    21    13    14   ar
    22    14    15   ar
    23    15    16   ar
    24    16    17   ar
    25    17    18   ar
    26    17    19    1
    27    19    20   ar
    28    20    21   ar
    29    21    22   ar
    30    22    23   ar
    31    22    24    1
    32    24    25    1
    33    25    26    1
    34    26     1    1
    35    11     6   ar
    36    35    31    1
    37    18    13   ar
    38    23    19   ar
    39    12    27    1
@<TRIPOS>MOLECULE
*****
 35 39 0 0 0
SMALL
GASTEIGER

@<TRIPOS>ATOM
      1 C         142.8465  137.3304  159.2947 C.2     1  UNL1        0.0036
      2 C         142.8705  137.7794  160.7258 C.2     1  UNL1        0.0036
      3 C         142.7359  138.6680  161.9266 C.3     1  UNL1        0.1686
      4 O         142.4591  139.8892  162.7526 O.3     1  UNL1       -0.3442
      5 C         142.0734  141.2955  163.1039 C.3     1  UNL1        0.1721
      6 C         141.6253  142.7174  162.9383 C.ar    1  UNL1        0.0425
      7 C         141.1689  143.9833  162.2758 C.ar    1  UNL1        0.0158
      8 C         140.7592  144.9407  161.1961 C.ar    1  UNL1        0.0504
      9 C         140.7291  145.5612  162.6071 C.ar    1  UNL1        0.0178
     10 C         141.0426  145.0279  163.9737 C.ar    1  UNL1        0.0379
     11 C         141.4907  143.6060  164.1392 C.ar    1  UNL1        0.1370
     12 N         140.4456  145.4739  159.8295 N.pl3   1  UNL1       -0.2825
     13 C         140.2794  145.3574  158.0235 C.ar    1  UNL1        0.2207
     14 N         139.8230  146.6233  157.3610 N.ar    1  UNL1       -0.2120
     15 C         139.6434  146.6681  155.8725 C.ar    1  UNL1        0.1034
     16 C         139.9202  145.4470  155.0465 C.ar    1  UNL1        0.0404
     17 C         140.3766  144.1811  155.7091 C.ar    1  UNL1        0.0917
     18 N         140.5562  144.1363  157.1976 N.ar    1  UNL1       -0.2130
     19 C         140.6534  142.9599  154.8832 C.ar    1  UNL1        0.0470
     20 C         140.6135  142.5588  153.4383 C.ar    1  UNL1        0.0082
     21 C         141.0368  141.1228  153.3440 C.ar    1  UNL1        0.0052
     22 C         141.4873  140.1317  154.6974 C.ar    1  UNL1        0.0369
     23 S         141.0392  141.5536  154.5318 S.2     1  UNL1       -0.0873
     24 C         141.9437  138.8658  155.3600 C.3     1  UNL1        0.1754
     25 O         142.3534  137.9084  156.4397 O.3     1  UNL1       -0.3437
     26 C         142.6669  137.3752  157.8062 C.3     1  UNL1        0.1686
     27 H         140.1847  146.4053  160.0132 H       1  UNL1        0.1551
     28 O         141.8043  143.0728  165.5058 O.3     1  UNL1       -0.4742
     29 C         140.6910  142.7342  166.4524 C.3     1  UNL1        0.2226
     30 C         139.8563  141.5095  166.2209 C.3     1  UNL1        0.1200
     31 N         138.9421  141.4384  165.0338 N.3     1  UNL1       -0.2696
     32 C         138.7079  140.2330  164.1724 C.3     1  UNL1        0.0722
     33 C         137.7227  140.6099  163.1059 C.3     1  UNL1        0.0188
     34 C         137.3480  142.0482  163.3082 C.3     1  UNL1        0.0188
     35 C         138.1017  142.5602  164.4998 C.3     1  UNL1        0.0722
@<TRIPOS>BOND
     1     1     2    2
     2     2     3    1
     3     3     4    1
     4     4     5    1
     5     5     6    1
     6     6     7   ar
     7     7     8   ar
     8     8     9   ar
     9     9    10   ar
    10    10    11   ar
    11    11    28    1
    12    28    29    1
    13    29    30    1
    14    30    31    1
    15    31    32    1
    16    32    33    1
    17    33    34    1
    18    34    35    1
    19     8    12    1
    20    12    13    1
    21    13    14   ar
    22    14    15   ar
    23    15    16   ar
    24    16    17   ar
    25    17    18   ar
    26    17    19    1
    27    19    20   ar
    28    20    21   ar
    29    21    22   ar
    30    22    23   ar
    31    22    24    1
    32    24    25    1
    33    25    26    1
    34    26     1    1
    35    11     6   ar
    36    35    31    1
    37    18    13   ar
    38    23    19   ar
    39    12    27    1
@<TRIPOS>MOLECULE
*****
 35 39 0 0 0
SMALL
GASTEIGER

@<TRIPOS>ATOM
      1 C         141.5922  145.7651  158.1704 C.2     1  UNL1        0.0036
      2 C         141.1724  145.4776  159.5815 C.2     1  UNL1        0.0036
      3 C         140.8787  144.7096  160.8360 C.3     1  UNL1        0.1686
      4 O         140.7465  143.5535  161.7826 O.3     1  UNL1       -0.3442
      5 C         140.7918  142.1490  162.3072 C.3     1  UNL1        0.1721
      6 C         141.0090  140.6653  162.3465 C.ar    1  UNL1        0.0425
      7 C         141.3719  139.2815  161.8957 C.ar    1  UNL1        0.0158
      8 C         141.8369  138.1644  161.0092 C.ar    1  UNL1        0.0504
      9 C         141.4434  137.6980  162.4249 C.ar    1  UNL1        0.0178
     10 C         140.9325  138.4136  163.6403 C.ar    1  UNL1        0.0379
     11 C         140.7153  139.8973  163.6009 C.ar    1  UNL1        0.1370
     12 N         142.3478  137.4487  159.7938 N.pl3   1  UNL1       -0.2825
     13 C         142.9290  137.3482  158.0748 C.ar    1  UNL1        0.2207
     14 N         143.2919  135.9644  157.6240 N.ar    1  UNL1       -0.2120
     15 C         143.7871  135.7366  156.2266 C.ar    1  UNL1        0.1034
     16 C         143.9193  136.8927  155.2800 C.ar    1  UNL1        0.0404
     17 C         143.5563  138.2765  155.7308 C.ar    1  UNL1        0.0917
     18 N         143.0612  138.5043  157.1282 N.ar    1  UNL1       -0.2130
     19 C         143.6885  139.4325  154.7841 C.ar    1  UNL1        0.0470
     20 C         144.1183  139.6690  153.3666 C.ar    1  UNL1        0.0082
     21 C         143.9851  141.1354  153.0803 C.ar    1  UNL1        0.0052
     22 C         143.4261  142.3207  154.2203 C.ar    1  UNL1        0.0369
     23 S         143.6433  140.8370  154.2595 S.2     1  UNL1       -0.0873
     24 C         143.0632  143.7045  154.6711 C.3     1  UNL1        0.1754
     25 O         142.5982  144.8217  155.5576 O.3     1  UNL1       -0.3437
     26 C         142.0873  145.5373  156.7729 C.3     1  UNL1        0.1686
     27 H         142.3939  136.5126  160.0950 H       1  UNL1        0.1551
     28 O         140.2044  140.6129  164.8163 O.3     1  UNL1       -0.4742
     29 C         141.1457  140.9668  165.9293 C.3     1  UNL1        0.2226
     30 C         142.2235  141.9856  165.7046 C.3     1  UNL1        0.1200
     31 N         143.4978  141.5903  165.0190 N.3     1  UNL1       -0.2696
     32 C         143.9932  140.1887  164.8187 C.3     1  UNL1        0.0722
     33 C         145.3020  140.2596  164.0894 C.3     1  UNL1        0.0188
     34 C         145.6156  141.7049  163.8390 C.3     1  UNL1        0.0188
     35 C         144.5005  142.5274  164.4136 C.3     1  UNL1        0.0722
@<TRIPOS>BOND
     1     1     2    2
     2     2     3    1
     3     3     4    1
     4     4     5    1
     5     5     6    1
     6     6     7   ar
     7     7     8   ar
     8     8     9   ar
     9     9    10   ar
    10    10    11   ar
    11    11    28    1
    12    28    29    1
    13    29    30    1
    14    30    31    1
    15    31    32    1
    16    32    33    1
    17    33    34    1
    18    34    35    1
    19     8    12    1
    20    12    13    1
    21    13    14   ar
    22    14    15   ar
    23    15    16   ar
    24    16    17   ar
    25    17    18   ar
    26    17    19    1
    27    19    20   ar
    28    20    21   ar
    29    21    22   ar
    30    22    23   ar
    31    22    24    1
    32    24    25    1
    33    25    26    1
    34    26     1    1
    35    11     6   ar
    36    35    31    1
    37    18    13   ar
    38    23    19   ar
    39    12    27    1
@<TRIPOS>MOLECULE
*****
 35 39 0 0 0
SMALL
GASTEIGER

@<TRIPOS>ATOM
      1 C         139.6396  145.4654  156.4482 C.2     1  UNL1        0.0036
      2 C         140.3613  145.7162  157.7391 C.2     1  UNL1        0.0036
      3 C         141.1826  145.4593  158.9676 C.3     1  UNL1        0.1686
      4 O         142.0044  144.7260  159.9858 O.3     1  UNL1       -0.3442
      5 C         142.7277  143.6045  160.6708 C.3     1  UNL1        0.1721
      6 C         143.2651  142.2302  160.9400 C.ar    1  UNL1        0.0425
      7 C         143.5519  140.7688  160.7608 C.ar    1  UNL1        0.0158
      8 C         143.5534  139.3966  160.1550 C.ar    1  UNL1        0.0504
      9 C         144.3399  139.4815  161.4782 C.ar    1  UNL1        0.0178
     10 C         144.6238  140.5991  162.4378 C.ar    1  UNL1        0.0379
     11 C         144.0864  141.9733  162.1685 C.ar    1  UNL1        0.1370
     12 N         143.2695  138.2791  159.1954 N.pl3   1  UNL1       -0.2825
     13 C         142.5484  137.5518  157.6942 C.ar    1  UNL1        0.2207
     14 N         142.8352  136.0904  157.5150 N.ar    1  UNL1       -0.2120
     15 C         142.3001  135.3624  156.3177 C.ar    1  UNL1        0.1034
     16 C         141.4783  136.0958  155.2995 C.ar    1  UNL1        0.0404
     17 C         141.1915  137.5572  155.4786 C.ar    1  UNL1        0.0917
     18 N         141.7265  138.2852  156.6760 N.ar    1  UNL1       -0.2130
     19 C         140.3697  138.2906  154.4604 C.ar    1  UNL1        0.0470
     20 C         139.6630  137.9897  153.1719 C.ar    1  UNL1        0.0082
     21 C         139.0229  139.2569  152.6875 C.ar    1  UNL1        0.0052
     22 C         139.1090  140.7863  153.5063 C.ar    1  UNL1        0.0369
     23 S         139.6464  139.4120  153.7754 S.2     1  UNL1       -0.0873
     24 C         138.8222  142.2477  153.6854 C.3     1  UNL1        0.1754
     25 O         138.8207  143.6200  154.2913 O.3     1  UNL1       -0.3437
     26 C         139.1046  144.7375  155.2508 C.3     1  UNL1        0.1686
     27 H         143.7303  137.5137  159.6092 H       1  UNL1        0.1551
     28 O         144.3703  143.0909  163.1281 O.3     1  UNL1       -0.4742
     29 C         143.5814  143.2071  164.3986 C.3     1  UNL1        0.2226
     30 C         142.2467  142.5329  164.5169 C.3     1  UNL1        0.1200
     31 N         140.9907  143.3529  164.5287 N.3     1  UNL1       -0.2696
     32 C         139.8730  143.2395  165.5225 C.3     1  UNL1        0.0722
     33 C         138.8235  144.2468  165.1567 C.3     1  UNL1        0.0188
     34 C         139.2926  144.9828  163.9367 C.3     1  UNL1        0.0188
     35 C         140.6320  144.4303  163.5486 C.3     1  UNL1        0.0722
@<TRIPOS>BOND
     1     1     2    2
     2     2     3    1
     3     3     4    1
     4     4     5    1
     5     5     6    1
     6     6     7   ar
     7     7     8   ar
     8     8     9   ar
     9     9    10   ar
    10    10    11   ar
    11    11    28    1
    12    28    29    1
    13    29    30    1
    14    30    31    1
    15    31    32    1
    16    32    33    1
    17    33    34    1
    18    34    35    1
    19     8    12    1
    20    12    13    1
    21    13    14   ar
    22    14    15   ar
    23    15    16   ar
    24    16    17   ar
    25    17    18   ar
    26    17    19    1
    27    19    20   ar
    28    20    21   ar
    29    21    22   ar
    30    22    23   ar
    31    22    24    1
    32    24    25    1
    33    25    26    1
    34    26     1    1
    35    11     6   ar
    36    35    31    1
    37    18    13   ar
    38    23    19   ar
    39    12    27    1
@<TRIPOS>MOLECULE
*****
 35 39 0 0 0
SMALL
GASTEIGER

@<TRIPOS>ATOM
      1 C         142.6447  137.6098  158.4638 C.2     1  UNL1        0.0036
      2 C         142.5035  137.9015  159.9284 C.2     1  UNL1        0.0036
      3 C         142.2171  138.6525  161.1948 C.3     1  UNL1        0.1686
      4 O         141.8199  139.7723  162.1104 O.3     1  UNL1       -0.3442
      5 C         141.3600  141.1259  162.5646 C.3     1  UNL1        0.1721
      6 C         140.8927  142.5499  162.5027 C.ar    1  UNL1        0.0425
      7 C         140.4745  143.8726  161.9322 C.ar    1  UNL1        0.0158
      8 C         140.1557  144.9345  160.9219 C.ar    1  UNL1        0.0504
      9 C         139.9582  145.3980  162.3789 C.ar    1  UNL1        0.0178
     10 C         140.1390  144.7250  163.7073 C.ar    1  UNL1        0.0379
     11 C         140.6062  143.3010  163.7691 C.ar    1  UNL1        0.1370
     12 N         139.9749  145.6075  159.5935 N.pl3   1  UNL1       -0.2825
     13 C         140.0054  145.6846  157.7780 C.ar    1  UNL1        0.2207
     14 N         139.5872  147.0073  157.2075 N.ar    1  UNL1       -0.2120
     15 C         139.5662  147.2102  155.7215 C.ar    1  UNL1        0.1034
     16 C         139.9633  146.0903  154.8060 C.ar    1  UNL1        0.0404
     17 C         140.3815  144.7676  155.3764 C.ar    1  UNL1        0.0917
     18 N         140.4026  144.5648  156.8625 N.ar    1  UNL1       -0.2130
     19 C         140.7787  143.6478  154.4609 C.ar    1  UNL1        0.0470
     20 C         140.9041  143.4050  152.9860 C.ar    1  UNL1        0.0082
     21 C         141.3749  141.9947  152.7868 C.ar    1  UNL1        0.0052
     22 C         141.7059  140.8702  154.0686 C.ar    1  UNL1        0.0369
     23 S         141.2386  142.2943  154.0067 S.2     1  UNL1       -0.0873
     24 C         142.1241  139.5475  154.6390 C.3     1  UNL1        0.1754
     25 O         142.4429  138.4856  155.6494 O.3     1  UNL1       -0.3437
     26 C         142.6237  137.8126  156.9778 C.3     1  UNL1        0.1686
     27 H         139.6701  146.5092  159.8452 H       1  UNL1        0.1551
     28 O         140.7871  142.6280  165.0975 O.3     1  UNL1       -0.4742
     29 C         139.5999  142.0632  165.8199 C.3     1  UNL1        0.2226
     30 C         138.6289  141.1815  165.0920 C.3     1  UNL1        0.1200
     31 N         139.0303  139.7919  164.6945 N.3     1  UNL1       -0.2696
     32 C         138.4760  139.0103  163.5405 C.3     1  UNL1        0.0722
     33 C         139.1596  137.6753  163.5139 C.3     1  UNL1        0.0188
     34 C         140.1364  137.6320  164.6516 C.3     1  UNL1        0.0188
     35 C         140.0564  138.9402  165.3811 C.3     1  UNL1        0.0722
@<TRIPOS>BOND
     1     1     2    2
     2     2     3    1
     3     3     4    1
     4     4     5    1
     5     5     6    1
     6     6     7   ar
     7     7     8   ar
     8     8     9   ar
     9     9    10   ar
    10    10    11   ar
    11    11    28    1
    12    28    29    1
    13    29    30    1
    14    30    31    1
    15    31    32    1
    16    32    33    1
    17    33    34    1
    18    34    35    1
    19     8    12    1
    20    12    13    1
    21    13    14   ar
    22    14    15   ar
    23    15    16   ar
    24    16    17   ar
    25    17    18   ar
    26    17    19    1
    27    19    20   ar
    28    20    21   ar
    29    21    22   ar
    30    22    23   ar
    31    22    24    1
    32    24    25    1
    33    25    26    1
    34    26     1    1
    35    11     6   ar
    36    35    31    1
    37    18    13   ar
    38    23    19   ar
    39    12    27    1
@<TRIPOS>MOLECULE
*****
 35 39 0 0 0
SMALL
GASTEIGER

@<TRIPOS>ATOM
      1 C         139.7393  146.0290  161.1902 C.2     1  UNL1        0.0036
      2 C         139.5258  145.3565  162.5140 C.2     1  UNL1        0.0036
      3 C         139.4868  144.2805  163.5582 C.3     1  UNL1        0.1686
      4 O         139.6268  142.9306  164.1971 O.3     1  UNL1       -0.3442
      5 C         139.9289  141.4697  164.3535 C.3     1  UNL1        0.1721
      6 C         140.3568  140.0740  164.0086 C.ar    1  UNL1        0.0425
      7 C         140.8588  138.9119  163.2040 C.ar    1  UNL1        0.0158
      8 C         141.3744  138.1234  162.0368 C.ar    1  UNL1        0.0504
      9 C         141.2126  137.2826  163.3188 C.ar    1  UNL1        0.0178
     10 C         140.7456  137.6022  164.7080 C.ar    1  UNL1        0.0379
     11 C         140.3178  138.9979  165.0529 C.ar    1  UNL1        0.1370
     12 N         141.8414  137.8038  160.6475 N.pl3   1  UNL1       -0.2825
     13 C         142.2339  138.2025  158.9184 C.ar    1  UNL1        0.2207
     14 N         142.7359  137.0403  158.1138 N.ar    1  UNL1       -0.2120
     15 C         143.0979  137.2281  156.6704 C.ar    1  UNL1        0.1034
     16 C         142.9579  138.5780  156.0315 C.ar    1  UNL1        0.0404
     17 C         142.4559  139.7401  156.8361 C.ar    1  UNL1        0.0917
     18 N         142.0939  139.5524  158.2795 N.ar    1  UNL1       -0.2130
     19 C         142.3159  141.0900  156.1972 C.ar    1  UNL1        0.0470
     20 C         142.5457  141.7168  154.8539 C.ar    1  UNL1        0.0082
     21 C         142.1750  143.1672  154.9496 C.ar    1  UNL1        0.0052
     22 C         141.5859  143.9466  156.3857 C.ar    1  UNL1        0.0369
     23 S         142.0138  142.5509  156.0408 S.2     1  UNL1       -0.0873
     24 C         141.0839  145.1088  157.1902 C.3     1  UNL1        0.1754
     25 O         140.5682  145.8972  158.3576 O.3     1  UNL1       -0.3437
     26 C         140.1013  146.2168  159.7468 C.3     1  UNL1        0.1686
     27 H         142.0531  136.8440  160.7037 H       1  UNL1        0.1551
     28 O         139.8508  139.3175  166.4421 O.3     1  UNL1       -0.4742
     29 C         140.8517  139.5528  167.5343 C.3     1  UNL1        0.2226
     30 C         141.9720  140.5286  167.3273 C.3     1  UNL1        0.1200
     31 N         142.9912  140.2836  166.2544 N.3     1  UNL1       -0.2696
     32 C         143.6588  138.9742  165.9548 C.3     1  UNL1        0.0722
     33 C         144.6019  139.1865  164.8079 C.3     1  UNL1        0.0188
     34 C         144.5173  140.6272  164.3987 C.3     1  UNL1        0.0188
     35 C         143.5218  141.3052  165.2927 C.3     1  UNL1        0.0722
@<TRIPOS>BOND
     1     1     2    2
     2     2     3    1
     3     3     4    1
     4     4     5    1
     5     5     6    1
     6     6     7   ar
     7     7     8   ar
     8     8     9   ar
     9     9    10   ar
    10    10    11   ar
    11    11    28    1
    12    28    29    1
    13    29    30    1
    14    30    31    1
    15    31    32    1
    16    32    33    1
    17    33    34    1
    18    34    35    1
    19     8    12    1
    20    12    13    1
    21    13    14   ar
    22    14    15   ar
    23    15    16   ar
    24    16    17   ar
    25    17    18   ar
    26    17    19    1
    27    19    20   ar
    28    20    21   ar
    29    21    22   ar
    30    22    23   ar
    31    22    24    1
    32    24    25    1
    33    25    26    1
    34    26     1    1
    35    11     6   ar
    36    35    31    1
    37    18    13   ar
    38    23    19   ar
    39    12    27    1
@<TRIPOS>MOLECULE
*****
 35 39 0 0 0
SMALL
GASTEIGER

@<TRIPOS>ATOM
      1 C         142.7601  137.3893  158.8057 C.2     1  UNL1        0.0036
      2 C         142.5323  137.7061  160.2541 C.2     1  UNL1        0.0036
      3 C         142.1672  138.4772  161.4877 C.3     1  UNL1        0.1686
      4 O         141.7090  139.6098  162.3580 O.3     1  UNL1       -0.3442
      5 C         141.2128  140.9671  162.7598 C.3     1  UNL1        0.1721
      6 C         140.7385  142.3855  162.6447 C.ar    1  UNL1        0.0425
      7 C         140.3434  143.6939  162.0267 C.ar    1  UNL1        0.0158
      8 C         140.0750  144.7344  160.9801 C.ar    1  UNL1        0.0504
      9 C         139.7900  145.2223  162.4145 C.ar    1  UNL1        0.0178
     10 C         139.8992  144.5750  163.7634 C.ar    1  UNL1        0.0379
     11 C         140.3735  143.1567  163.8784 C.ar    1  UNL1        0.1370
     12 N         139.9658  145.3817  159.6313 N.pl3   1  UNL1       -0.2825
     13 C         140.1005  145.4263  157.8195 C.ar    1  UNL1        0.2207
     14 N         139.7054  146.7346  157.2014 N.ar    1  UNL1       -0.2120
     15 C         139.7685  146.9104  155.7131 C.ar    1  UNL1        0.1034
     16 C         140.2267  145.7779  154.8429 C.ar    1  UNL1        0.0404
     17 C         140.6219  144.4695  155.4609 C.ar    1  UNL1        0.0917
     18 N         140.5587  144.2937  156.9492 N.ar    1  UNL1       -0.2130
     19 C         141.0801  143.3369  154.5907 C.ar    1  UNL1        0.0470
     20 C         141.2924  143.0687  153.1302 C.ar    1  UNL1        0.0082
     21 C         141.7851  141.6594  152.9846 C.ar    1  UNL1        0.0052
     22 C         142.0505  140.5612  154.3040 C.ar    1  UNL1        0.0369
     23 S         141.5763  141.9797  154.1889 S.2     1  UNL1       -0.0873
     24 C         142.4457  139.2529  154.9220 C.3     1  UNL1        0.1754
     25 O         142.7140  138.2123  155.9686 O.3     1  UNL1       -0.3437
     26 C         142.8232  137.5651  157.3174 C.3     1  UNL1        0.1686
     27 H         139.6398  146.2849  159.8483 H       1  UNL1        0.1551
     28 O         140.4827  142.5094  165.2272 O.3     1  UNL1       -0.4742
     29 C         141.6394  142.8364  166.1246 C.3     1  UNL1        0.2226
     30 C         142.7159  141.8190  166.3611 C.3     1  UNL1        0.1200
     31 N         143.7029  141.5054  165.2759 N.3     1  UNL1       -0.2696
     32 C         144.4721  142.5075  164.4672 C.3     1  UNL1        0.0722
     33 C         145.3385  141.7560  163.5004 C.3     1  UNL1        0.0188
     34 C         145.1047  140.2894  163.7116 C.3     1  UNL1        0.0188
     35 C         144.0938  140.1346  164.8090 C.3     1  UNL1        0.0722
@<TRIPOS>BOND
     1     1     2    2
     2     2     3    1
     3     3     4    1
     4     4     5    1
     5     5     6    1
     6     6     7   ar
     7     7     8   ar
     8     8     9   ar
     9     9    10   ar
    10    10    11   ar
    11    11    28    1
    12    28    29    1
    13    29    30    1
    14    30    31    1
    15    31    32    1
    16    32    33    1
    17    33    34    1
    18    34    35    1
    19     8    12    1
    20    12    13    1
    21    13    14   ar
    22    14    15   ar
    23    15    16   ar
    24    16    17   ar
    25    17    18   ar
    26    17    19    1
    27    19    20   ar
    28    20    21   ar
    29    21    22   ar
    30    22    23   ar
    31    22    24    1
    32    24    25    1
    33    25    26    1
    34    26     1    1
    35    11     6   ar
    36    35    31    1
    37    18    13   ar
    38    23    19   ar
    39    12    27    1
@<TRIPOS>MOLECULE
*****
 35 39 0 0 0
SMALL
GASTEIGER

@<TRIPOS>ATOM
      1 C         139.9471  145.9406  161.0020 C.2     1  UNL1        0.0036
      2 C         139.7350  145.2823  162.3331 C.2     1  UNL1        0.0036
      3 C         139.6956  144.2172  163.3885 C.3     1  UNL1        0.1686
      4 O         139.8336  142.8737  164.0410 O.3     1  UNL1       -0.3442
      5 C         140.1324  141.4137  164.2119 C.3     1  UNL1        0.1721
      6 C         140.5559  140.0134  163.8805 C.ar    1  UNL1        0.0425
      7 C         141.0531  138.8417  163.0868 C.ar    1  UNL1        0.0158
      8 C         141.5639  138.0399  161.9266 C.ar    1  UNL1        0.0504
      9 C         141.4029  137.2128  163.2176 C.ar    1  UNL1        0.0178
     10 C         140.9400  137.5480  164.6045 C.ar    1  UNL1        0.0379
     11 C         140.5165  138.9483  164.9359 C.ar    1  UNL1        0.1370
     12 N         142.0269  137.7047  160.5396 N.pl3   1  UNL1       -0.2825
     13 C         142.4164  138.0845  158.8056 C.ar    1  UNL1        0.2207
     14 N         142.9135  136.9128  158.0120 N.ar    1  UNL1       -0.2120
     15 C         143.2727  137.0847  156.5658 C.ar    1  UNL1        0.1034
     16 C         143.1347  138.4282  155.9133 C.ar    1  UNL1        0.0404
     17 C         142.6375  139.5999  156.7070 C.ar    1  UNL1        0.0917
     18 N         142.2784  139.4280  158.1531 N.ar    1  UNL1       -0.2130
     19 C         142.4995  140.9435  156.0545 C.ar    1  UNL1        0.0470
     20 C         142.7278  141.5557  154.7043 C.ar    1  UNL1        0.0082
     21 C         142.3611  143.0080  154.7857 C.ar    1  UNL1        0.0052
     22 C         141.7772  143.8038  156.2150 C.ar    1  UNL1        0.0369
     23 S         142.2008  142.4034  155.8836 S.2     1  UNL1       -0.0873
     24 C         141.2801  144.9755  157.0087 C.3     1  UNL1        0.1754
     25 O         140.7692  145.7773  158.1690 O.3     1  UNL1       -0.3437
     26 C         140.3063  146.1124  159.5558 C.3     1  UNL1        0.1686
     27 H         142.2362  136.7450  160.6053 H       1  UNL1        0.1551
     28 O         140.0535  139.2835  166.3228 O.3     1  UNL1       -0.4742
     29 C         141.0541  139.6420  167.3813 C.3     1  UNL1        0.2226
     30 C         140.5865  140.0892  168.7346 C.3     1  UNL1        0.1200
     31 N         141.0244  141.4168  169.2784 N.3     1  UNL1       -0.2696
     32 C         140.1580  142.6294  169.4476 C.3     1  UNL1        0.0722
     33 C         141.0038  143.7269  170.0223 C.3     1  UNL1        0.0188
     34 C         142.3930  143.1925  170.2082 C.3     1  UNL1        0.0188
     35 C         142.4057  141.7647  169.7484 C.3     1  UNL1        0.0722
@<TRIPOS>BOND
     1     1     2    2
     2     2     3    1
     3     3     4    1
     4     4     5    1
     5     5     6    1
     6     6     7   ar
     7     7     8   ar
     8     8     9   ar
     9     9    10   ar
    10    10    11   ar
    11    11    28    1
    12    28    29    1
    13    29    30    1
    14    30    31    1
    15    31    32    1
    16    32    33    1
    17    33    34    1
    18    34    35    1
    19     8    12    1
    20    12    13    1
    21    13    14   ar
    22    14    15   ar
    23    15    16   ar
    24    16    17   ar
    25    17    18   ar
    26    17    19    1
    27    19    20   ar
    28    20    21   ar
    29    21    22   ar
    30    22    23   ar
    31    22    24    1
    32    24    25    1
    33    25    26    1
    34    26     1    1
    35    11     6   ar
    36    35    31    1
    37    18    13   ar
    38    23    19   ar
    39    12    27    1
@<TRIPOS>MOLECULE
*****
 35 39 0 0 0
SMALL
GASTEIGER

@<TRIPOS>ATOM
      1 C         140.3407  145.8132  158.6320 C.2     1  UNL1        0.0036
      2 C         140.3941  145.4293  160.0811 C.2     1  UNL1        0.0036
      3 C         140.5868  144.5934  161.3116 C.3     1  UNL1        0.1686
      4 O         140.8956  143.4064  162.1751 O.3     1  UNL1       -0.3442
      5 C         141.2832  142.0116  162.5676 C.3     1  UNL1        0.1721
      6 C         141.7029  140.5770  162.4417 C.ar    1  UNL1        0.0425
      7 C         142.1041  139.2758  161.8125 C.ar    1  UNL1        0.0158
      8 C         142.4384  138.2649  160.7560 C.ar    1  UNL1        0.0504
      9 C         142.5424  137.7079  162.1897 C.ar    1  UNL1        0.0178
     10 C         142.3153  138.3066  163.5463 C.ar    1  UNL1        0.0379
     11 C         141.8956  139.7412  163.6722 C.ar    1  UNL1        0.1370
     12 N         142.6654  137.6662  159.3994 N.pl3   1  UNL1       -0.2825
     13 C         142.7281  137.6990  157.5834 C.ar    1  UNL1        0.2207
     14 N         143.1293  136.3978  156.9543 N.ar    1  UNL1       -0.2120
     15 C         143.2217  136.2836  155.4615 C.ar    1  UNL1        0.1034
     16 C         142.9129  137.4706  154.5979 C.ar    1  UNL1        0.0404
     17 C         142.5117  138.7718  155.2271 C.ar    1  UNL1        0.0917
     18 N         142.4193  138.8860  156.7199 N.ar    1  UNL1       -0.2130
     19 C         142.2029  139.9587  154.3635 C.ar    1  UNL1        0.0470
     20 C         142.1641  140.2940  152.9020 C.ar    1  UNL1        0.0082
     21 C         141.7542  141.7306  152.7666 C.ar    1  UNL1        0.0052
     22 C         141.3955  142.7882  154.0970 C.ar    1  UNL1        0.0369
     23 S         141.8153  141.3536  153.9710 S.2     1  UNL1       -0.0873
     24 C         140.9944  144.0893  154.7262 C.3     1  UNL1        0.1754
     25 O         140.6601  145.1003  155.7828 O.3     1  UNL1       -0.3437
     26 C         140.4331  145.6990  157.1393 C.3     1  UNL1        0.1686
     27 H         142.9247  136.7401  159.6101 H       1  UNL1        0.1551
     28 O         141.6686  140.3399  165.0287 O.3     1  UNL1       -0.4742
     29 C         140.2935  140.3395  165.6281 C.3     1  UNL1        0.2226
     30 C         139.3435  139.2191  165.3247 C.3     1  UNL1        0.1200
     31 N         138.7759  139.0703  163.9442 N.3     1  UNL1       -0.2696
     32 C         138.7886  137.8199  163.1157 C.3     1  UNL1        0.0722
     33 C         138.1164  138.1227  161.8094 C.3     1  UNL1        0.0188
     34 C         137.6883  139.5602  161.8304 C.3     1  UNL1        0.0188
     35 C         138.0959  140.1458  163.1499 C.3     1  UNL1        0.0722
@<TRIPOS>BOND
     1     1     2    2
     2     2     3    1
     3     3     4    1
     4     4     5    1
     5     5     6    1
     6     6     7   ar
     7     7     8   ar
     8     8     9   ar
     9     9    10   ar
    10    10    11   ar
    11    11    28    1
    12    28    29    1
    13    29    30    1
    14    30    31    1
    15    31    32    1
    16    32    33    1
    17    33    34    1
    18    34    35    1
    19     8    12    1
    20    12    13    1
    21    13    14   ar
    22    14    15   ar
    23    15    16   ar
    24    16    17   ar
    25    17    18   ar
    26    17    19    1
    27    19    20   ar
    28    20    21   ar
    29    21    22   ar
    30    22    23   ar
    31    22    24    1
    32    24    25    1
    33    25    26    1
    34    26     1    1
    35    11     6   ar
    36    35    31    1
    37    18    13   ar
    38    23    19   ar
    39    12    27    1
