@<TRIPOS>MOLECULE
*****
 21 23 0 0 0
SMALL
GASTEIGER

@<TRIPOS>ATOM
      1 C         140.0588  141.7626  164.9807 C.2     1  UNL1        0.1818
      2 O         141.2479  142.4583  164.3878 O.2     1  UNL1       -0.2903
      3 C         139.9863  141.5308  166.4610 C.2     1  UNL1        0.0183
      4 C         139.4792  140.2227  166.9914 C.2     1  UNL1        0.0005
      5 C         139.4068  139.9910  168.4717 C.2     1  UNL1        0.0204
      6 C         139.8414  141.0675  169.4215 C.2     1  UNL1        0.1007
      7 N         139.8836  141.1271  170.9197 N.2     1  UNL1       -0.1482
      8 N         140.4168  142.4722  171.3151 N.2     1  UNL1       -0.1467
      9 C         140.7042  143.2439  170.0614 C.2     1  UNL1        0.1197
     10 C         140.3486  142.3757  168.8910 C.2     1  UNL1        0.0226
     11 C         140.4210  142.6074  167.4108 C.3     1  UNL1        0.0588
     12 C         138.9419  141.2985  164.0935 C.3     1  UNL1        0.0977
     13 C         137.6603  141.0579  163.3519 C.3     1  UNL1        0.0233
     14 C         137.8896  139.9370  162.3819 C.3     1  UNL1        0.0189
     15 C         139.3127  139.4848  162.5239 C.3     1  UNL1        0.0689
     16 N         139.9631  140.3262  163.5817 N.3     1  UNL1       -0.2938
     17 H         140.7540  140.8325  163.1835 H       1  UNL1        0.1235
     18 C         138.1542  142.3678  164.7907 C.3     1  UNL1        0.0219
     19 C         138.0656  144.1133  162.8684 C.3     1  UNL1        0.0001
     20 C         138.2423  143.7901  164.3225 C.3     1  UNL1        0.0017
     21 C         138.5070  144.8891  165.3084 C.3     1  UNL1        0.0001
@<TRIPOS>BOND
     1    19    20    1
     2    20    21    1
     3    20    18    1
     4    18    12    1
     5    12     1    1
     6     1     2    2
     7     1     3    1
     8     3     4    2
     9     4     5    1
    10     5     6    2
    11     6     7    1
    12     7     8    2
    13     8     9    1
    14     9    10    2
    15    10    11    1
    16    12    13    1
    17    13    14    1
    18    14    15    1
    19    15    16    1
    20    16    12    1
    21    11     3    1
    22    10     6    1
    23    16    17    1
@<TRIPOS>MOLECULE
*****
 21 23 0 0 0
SMALL
GASTEIGER

@<TRIPOS>ATOM
      1 C         142.1132  142.3164  165.6767 C.2     1  UNL1        0.1818
      2 O         141.1907  143.2342  164.9309 O.2     1  UNL1       -0.2903
      3 C         142.1138  142.3100  167.1767 C.2     1  UNL1        0.0183
      4 C         143.4129  142.3209  167.9263 C.2     1  UNL1        0.0005
      5 C         143.4134  142.3145  169.4264 C.2     1  UNL1        0.0204
      6 C         142.1147  142.2973  170.1767 C.2     1  UNL1        0.1007
      7 N         141.8034  142.2878  171.6440 N.2     1  UNL1       -0.1482
      8 N         140.3117  142.2711  171.8011 N.2     1  UNL1       -0.1467
      9 C         139.7012  142.2703  170.4310 C.2     1  UNL1        0.1197
     10 C         140.8155  142.2865  169.4270 C.2     1  UNL1        0.0226
     11 C         140.8150  142.2929  167.9270 C.3     1  UNL1        0.0588
     12 C         143.0353  141.4047  164.9226 C.3     1  UNL1        0.0977
     13 C         143.7234  140.2863  164.1974 C.3     1  UNL1        0.0233
     14 C         145.0752  140.7746  163.7684 C.3     1  UNL1        0.0189
     15 C         145.2227  142.1946  164.2285 C.3     1  UNL1        0.0689
     16 N         143.9619  142.5841  164.9418 N.3     1  UNL1       -0.2938
     17 H         143.5259  143.3747  164.4672 H       1  UNL1        0.1235
     18 C         141.9159  140.4159  165.0610 C.3     1  UNL1        0.0219
     19 C         143.0045  138.8848  166.8556 C.3     1  UNL1        0.0001
     20 C         142.1887  139.0458  165.6072 C.3     1  UNL1        0.0017
     21 C         141.6458  137.8366  164.9049 C.3     1  UNL1        0.0001
@<TRIPOS>BOND
     1    19    20    1
     2    20    21    1
     3    20    18    1
     4    18    12    1
     5    12     1    1
     6     1     2    2
     7     1     3    1
     8     3     4    2
     9     4     5    1
    10     5     6    2
    11     6     7    1
    12     7     8    2
    13     8     9    1
    14     9    10    2
    15    10    11    1
    16    12    13    1
    17    13    14    1
    18    14    15    1
    19    15    16    1
    20    16    12    1
    21    11     3    1
    22    10     6    1
    23    16    17    1
@<TRIPOS>MOLECULE
*****
 21 23 0 0 0
SMALL
GASTEIGER

@<TRIPOS>ATOM
      1 C         140.4115  141.0137  165.5006 C.2     1  UNL1        0.1818
      2 O         141.2036  141.7919  164.4922 O.2     1  UNL1       -0.2903
      3 C         140.4144  141.4318  166.9412 C.2     1  UNL1        0.0183
      4 C         140.3923  142.8881  167.2996 C.2     1  UNL1        0.0005
      5 C         140.3952  143.3062  168.7402 C.2     1  UNL1        0.0204
      6 C         140.4201  142.2678  169.8223 C.2     1  UNL1        0.1007
      7 N         140.4285  142.3772  171.3183 N.2     1  UNL1       -0.1482
      8 N         140.4558  140.9884  171.8845 N.2     1  UNL1       -0.1467
      9 C         140.4642  140.0207  170.7384 C.2     1  UNL1        0.1197
     10 C         140.4422  140.8114  169.4639 C.2     1  UNL1        0.0226
     11 C         140.4393  140.3934  168.0233 C.3     1  UNL1        0.0588
     12 C         139.6165  139.8174  165.0685 C.3     1  UNL1        0.0977
     13 C         138.5750  138.8092  164.6825 C.3     1  UNL1        0.0233
     14 C         139.2767  137.5360  164.3134 C.3     1  UNL1        0.0189
     15 C         140.7518  137.7572  164.4712 C.3     1  UNL1        0.0689
     16 N         140.9619  139.1671  164.9379 N.3     1  UNL1       -0.2938
     17 H         141.5278  139.6759  164.2586 H       1  UNL1        0.1235
     18 C         138.4373  140.7178  165.2894 C.3     1  UNL1        0.0219
     19 C         137.7164  141.1271  162.8271 C.3     1  UNL1        0.0001
     20 C         137.9944  141.6535  164.2039 C.3     1  UNL1        0.0017
     21 C         137.8294  143.1157  164.4953 C.3     1  UNL1        0.0001
@<TRIPOS>BOND
     1    19    20    1
     2    20    21    1
     3    20    18    1
     4    18    12    1
     5    12     1    1
     6     1     2    2
     7     1     3    1
     8     3     4    2
     9     4     5    1
    10     5     6    2
    11     6     7    1
    12     7     8    2
    13     8     9    1
    14     9    10    2
    15    10    11    1
    16    12    13    1
    17    13    14    1
    18    14    15    1
    19    15    16    1
    20    16    12    1
    21    11     3    1
    22    10     6    1
    23    16    17    1
@<TRIPOS>MOLECULE
*****
 21 23 0 0 0
SMALL
GASTEIGER

@<TRIPOS>ATOM
      1 C         140.6854  139.9179  165.9911 C.2     1  UNL1        0.1818
      2 O         141.7031  138.8182  165.9230 O.2     1  UNL1       -0.2903
      3 C         140.6135  140.7993  167.2027 C.2     1  UNL1        0.0183
      4 C         140.4475  142.2815  167.0431 C.2     1  UNL1        0.0005
      5 C         140.3756  143.1630  168.2547 C.2     1  UNL1        0.0204
      6 C         140.4697  142.5621  169.6259 C.2     1  UNL1        0.1007
      7 N         140.4306  143.1742  170.9947 N.2     1  UNL1       -0.1482
      8 N         140.5725  142.0703  172.0003 N.2     1  UNL1       -0.1467
      9 C         140.6992  140.7759  171.2530 C.2     1  UNL1        0.1197
     10 C         140.6357  141.0799  169.7855 C.2     1  UNL1        0.0226
     11 C         140.7076  140.1985  168.5739 C.3     1  UNL1        0.0588
     12 C         139.7395  140.1362  164.8476 C.3     1  UNL1        0.0977
     13 C         138.5727  140.2923  163.9178 C.3     1  UNL1        0.0233
     14 C         139.1057  140.6411  162.5599 C.3     1  UNL1        0.0189
     15 C         140.6017  140.7006  162.6503 C.3     1  UNL1        0.0689
     16 N         140.9935  140.3886  164.0642 N.3     1  UNL1       -0.2938
     17 H         141.4994  141.1782  164.4655 H       1  UNL1        0.1235
     18 C         138.6832  139.8382  165.8701 C.3     1  UNL1        0.0219
     19 C         137.3388  138.0986  167.2545 C.3     1  UNL1        0.0001
     20 C         138.2400  138.4238  166.1003 C.3     1  UNL1        0.0017
     21 C         138.6981  137.3345  165.1764 C.3     1  UNL1        0.0001
@<TRIPOS>BOND
     1    19    20    1
     2    20    21    1
     3    20    18    1
     4    18    12    1
     5    12     1    1
     6     1     2    2
     7     1     3    1
     8     3     4    2
     9     4     5    1
    10     5     6    2
    11     6     7    1
    12     7     8    2
    13     8     9    1
    14     9    10    2
    15    10    11    1
    16    12    13    1
    17    13    14    1
    18    14    15    1
    19    15    16    1
    20    16    12    1
    21    11     3    1
    22    10     6    1
    23    16    17    1
@<TRIPOS>MOLECULE
*****
 21 23 0 0 0
SMALL
GASTEIGER

@<TRIPOS>ATOM
      1 C         140.4844  141.6976  165.5866 C.2     1  UNL1        0.1818
      2 O         141.6292  141.3487  164.6824 O.2     1  UNL1       -0.2903
      3 C         140.5880  141.4413  167.0609 C.2     1  UNL1        0.0183
      4 C         141.0941  140.1201  167.5588 C.2     1  UNL1        0.0005
      5 C         141.1977  139.8638  169.0332 C.2     1  UNL1        0.0204
      6 C         140.7951  140.9290  170.0096 C.2     1  UNL1        0.1007
      7 N         140.7874  140.9648  171.5091 N.2     1  UNL1       -0.1482
      8 N         140.2765  142.3083  171.9380 N.2     1  UNL1       -0.1467
      9 C         139.9685  143.1028  170.7035 C.2     1  UNL1        0.1197
     10 C         140.2890  142.2503  169.5117 C.2     1  UNL1        0.0226
     11 C         140.1855  142.5065  168.0373 C.3     1  UNL1        0.0588
     12 C         139.2359  142.3028  165.0165 C.3     1  UNL1        0.0977
     13 C         137.8585  142.6325  164.5223 C.3     1  UNL1        0.0233
     14 C         137.8849  144.0279  163.9729 C.3     1  UNL1        0.0189
     15 C         139.2786  144.5607  164.1274 C.3     1  UNL1        0.0689
     16 N         140.1136  143.4946  164.7724 N.3     1  UNL1       -0.2938
     17 H         140.4876  143.8361  165.6577 H       1  UNL1        0.1235
     18 C         138.6193  140.9846  165.3798 C.3     1  UNL1        0.0219
     19 C         138.8126  138.4258  164.9731 C.3     1  UNL1        0.0001
     20 C         138.7213  139.8233  164.4358 C.3     1  UNL1        0.0017
     21 C         138.7319  140.0596  162.9546 C.3     1  UNL1        0.0001
@<TRIPOS>BOND
     1    19    20    1
     2    20    21    1
     3    20    18    1
     4    18    12    1
     5    12     1    1
     6     1     2    2
     7     1     3    1
     8     3     4    2
     9     4     5    1
    10     5     6    2
    11     6     7    1
    12     7     8    2
    13     8     9    1
    14     9    10    2
    15    10    11    1
    16    12    13    1
    17    13    14    1
    18    14    15    1
    19    15    16    1
    20    16    12    1
    21    11     3    1
    22    10     6    1
    23    16    17    1
@<TRIPOS>MOLECULE
*****
 21 23 0 0 0
SMALL
GASTEIGER

@<TRIPOS>ATOM
      1 C         141.4925  141.8673  165.1364 C.2     1  UNL1        0.1818
      2 O         140.8609  141.1542  163.9778 O.2     1  UNL1       -0.2903
      3 C         140.9489  141.6762  166.5213 C.2     1  UNL1        0.0183
      4 C         140.3961  140.3440  166.9329 C.2     1  UNL1        0.0005
      5 C         139.8524  140.1529  168.3179 C.2     1  UNL1        0.0204
      6 C         139.8617  141.2942  169.2912 C.2     1  UNL1        0.1007
      7 N         139.3974  141.4043  170.7133 N.2     1  UNL1       -0.1482
      8 N         139.6634  142.8046  171.1806 N.2     1  UNL1       -0.1467
      9 C         140.2920  143.5600  170.0473 C.2     1  UNL1        0.1197
     10 C         140.4146  142.6265  168.8796 C.2     1  UNL1        0.0226
     11 C         140.9581  142.8175  167.4947 C.3     1  UNL1        0.0588
     12 C         142.6678  142.7715  164.9102 C.3     1  UNL1        0.0977
     13 C         144.0042  143.4476  164.8264 C.3     1  UNL1        0.0233
     14 C         143.8135  144.7679  164.1407 C.3     1  UNL1        0.0189
     15 C         142.3593  144.9079  163.8007 C.3     1  UNL1        0.0689
     16 N         141.6512  143.6741  164.2763 N.3     1  UNL1       -0.2938
     17 H         141.2125  143.2006  163.4864 H       1  UNL1        0.1235
     18 C         143.4387  141.6799  165.5914 C.3     1  UNL1        0.0219
     19 C         143.7188  139.1078  165.3550 C.3     1  UNL1        0.0001
     20 C         143.9081  140.4910  164.8065 C.3     1  UNL1        0.0017
     21 C         144.5669  140.6853  163.4730 C.3     1  UNL1        0.0001
@<TRIPOS>BOND
     1    19    20    1
     2    20    21    1
     3    20    18    1
     4    18    12    1
     5    12     1    1
     6     1     2    2
     7     1     3    1
     8     3     4    2
     9     4     5    1
    10     5     6    2
    11     6     7    1
    12     7     8    2
    13     8     9    1
    14     9    10    2
    15    10    11    1
    16    12    13    1
    17    13    14    1
    18    14    15    1
    19    15    16    1
    20    16    12    1
    21    11     3    1
    22    10     6    1
    23    16    17    1
@<TRIPOS>MOLECULE
*****
 21 23 0 0 0
SMALL
GASTEIGER

@<TRIPOS>ATOM
      1 C         141.3620  142.5177  165.6073 C.2     1  UNL1        0.1818
      2 O         142.4439  143.0861  164.7377 O.2     1  UNL1       -0.2903
      3 C         141.5645  142.4221  167.0906 C.2     1  UNL1        0.0183
      4 C         142.9306  142.1463  167.6448 C.2     1  UNL1        0.0005
      5 C         143.1331  142.0507  169.1281 C.2     1  UNL1        0.0204
      6 C         141.9692  142.2311  170.0570 C.2     1  UNL1        0.1007
      7 N         141.8635  142.1924  171.5527 N.2     1  UNL1       -0.1482
      8 N         140.4319  142.4443  171.9229 N.2     1  UNL1       -0.1467
      9 C         139.6528  142.6387  170.6559 C.2     1  UNL1        0.1197
     10 C         140.6030  142.5069  169.5027 C.2     1  UNL1        0.0226
     11 C         140.4006  142.6025  168.0195 C.3     1  UNL1        0.0588
     12 C         140.0775  142.0448  164.9938 C.3     1  UNL1        0.0977
     13 C         138.7950  141.8523  164.2400 C.3     1  UNL1        0.0233
     14 C         138.2615  140.4906  164.5731 C.3     1  UNL1        0.0189
     15 C         139.2142  139.8415  165.5327 C.3     1  UNL1        0.0689
     16 N         140.3366  140.8020  165.7927 N.3     1  UNL1       -0.2938
     17 H         141.2224  140.3849  165.5066 H       1  UNL1        0.1235
     18 C         140.0870  143.3864  164.3230 C.3     1  UNL1        0.0219
     19 C         138.0277  144.5201  163.2165 C.3     1  UNL1        0.0001
     20 C         138.8883  144.2828  164.4219 C.3     1  UNL1        0.0017
     21 C         138.5504  144.9420  165.7263 C.3     1  UNL1        0.0001
@<TRIPOS>BOND
     1    19    20    1
     2    20    21    1
     3    20    18    1
     4    18    12    1
     5    12     1    1
     6     1     2    2
     7     1     3    1
     8     3     4    2
     9     4     5    1
    10     5     6    2
    11     6     7    1
    12     7     8    2
    13     8     9    1
    14     9    10    2
    15    10    11    1
    16    12    13    1
    17    13    14    1
    18    14    15    1
    19    15    16    1
    20    16    12    1
    21    11     3    1
    22    10     6    1
    23    16    17    1
@<TRIPOS>MOLECULE
*****
 21 23 0 0 0
SMALL
GASTEIGER

@<TRIPOS>ATOM
      1 C         141.0406  141.7020  164.9836 C.2     1  UNL1        0.1818
      2 O         141.3957  140.4768  164.1946 O.2     1  UNL1       -0.2903
      3 C         140.6115  141.5740  166.4153 C.2     1  UNL1        0.0183
      4 C         139.9810  140.3016  166.8983 C.2     1  UNL1        0.0005
      5 C         139.5519  140.1735  168.3300 C.2     1  UNL1        0.0204
      6 C         139.7533  141.3180  169.2785 C.2     1  UNL1        0.1007
      7 N         139.4335  141.4828  170.7347 N.2     1  UNL1       -0.1482
      8 N         139.8663  142.8572  171.1516 N.2     1  UNL1       -0.1467
      9 C         140.4537  143.5417  169.9530 C.2     1  UNL1        0.1197
     10 C         140.3838  142.5904  168.7954 C.2     1  UNL1        0.0226
     11 C         140.8129  142.7184  167.3638 C.3     1  UNL1        0.0588
     12 C         141.1145  143.0554  164.3411 C.3     1  UNL1        0.0977
     13 C         140.8841  144.3613  163.6398 C.3     1  UNL1        0.0233
     14 C         142.1820  145.1129  163.6216 C.3     1  UNL1        0.0189
     15 C         143.2145  144.2717  164.3116 C.3     1  UNL1        0.0689
     16 N         142.5548  143.0001  164.7563 N.3     1  UNL1       -0.2938
     17 H         142.6197  142.9128  165.7705 H       1  UNL1        0.1235
     18 C         139.6587  142.8279  164.0602 C.3     1  UNL1        0.0219
     19 C         138.6877  144.7464  165.5185 C.3     1  UNL1        0.0001
     20 C         138.6746  143.9437  164.2514 C.3     1  UNL1        0.0017
     21 C         137.6775  144.2568  163.1755 C.3     1  UNL1        0.0001
@<TRIPOS>BOND
     1    19    20    1
     2    20    21    1
     3    20    18    1
     4    18    12    1
     5    12     1    1
     6     1     2    2
     7     1     3    1
     8     3     4    2
     9     4     5    1
    10     5     6    2
    11     6     7    1
    12     7     8    2
    13     8     9    1
    14     9    10    2
    15    10    11    1
    16    12    13    1
    17    13    14    1
    18    14    15    1
    19    15    16    1
    20    16    12    1
    21    11     3    1
    22    10     6    1
    23    16    17    1
@<TRIPOS>MOLECULE
*****
 21 23 0 0 0
SMALL
GASTEIGER

@<TRIPOS>ATOM
      1 C         138.3812  139.3372  166.3990 C.2     1  UNL1        0.1818
      2 O         137.3311  138.4799  167.0410 O.2     1  UNL1       -0.2903
      3 C         139.2248  140.2472  167.2418 C.2     1  UNL1        0.0183
      4 C         139.9216  141.4181  166.6148 C.2     1  UNL1        0.0005
      5 C         140.7653  142.3282  167.4576 C.2     1  UNL1        0.0204
      6 C         140.9121  142.0671  168.9274 C.2     1  UNL1        0.1007
      7 N         141.6712  142.7852  170.0034 N.2     1  UNL1       -0.1482
      8 N         141.4436  142.0581  171.2955 N.2     1  UNL1       -0.1467
      9 C         140.5437  140.8905  171.0180 C.2     1  UNL1        0.1197
     10 C         140.2152  140.8960  169.5544 C.2     1  UNL1        0.0226
     11 C         139.3716  139.9861  168.7116 C.3     1  UNL1        0.0588
     12 C         138.5877  139.2846  164.9143 C.3     1  UNL1        0.0977
     13 C         138.9516  138.9685  163.4937 C.3     1  UNL1        0.0233
     14 C         138.3807  140.0446  162.6186 C.3     1  UNL1        0.0189
     15 C         137.6639  141.0257  163.4981 C.3     1  UNL1        0.0689
     16 N         137.7919  140.5560  164.9169 N.3     1  UNL1       -0.2938
     17 H         136.8662  140.3842  165.3095 H       1  UNL1        0.1235
     18 C         139.3404  138.0241  165.2220 C.3     1  UNL1        0.0219
     19 C         141.1418  136.9913  163.6605 C.3     1  UNL1        0.0001
     20 C         140.7752  137.8869  164.8066 C.3     1  UNL1        0.0017
     21 C         141.8433  138.6454  165.5372 C.3     1  UNL1        0.0001
@<TRIPOS>BOND
     1    19    20    1
     2    20    21    1
     3    20    18    1
     4    18    12    1
     5    12     1    1
     6     1     2    2
     7     1     3    1
     8     3     4    2
     9     4     5    1
    10     5     6    2
    11     6     7    1
    12     7     8    2
    13     8     9    1
    14     9    10    2
    15    10    11    1
    16    12    13    1
    17    13    14    1
    18    14    15    1
    19    15    16    1
    20    16    12    1
    21    11     3    1
    22    10     6    1
    23    16    17    1
