@<TRIPOS>MOLECULE
*****
 35 37 0 0 0
SMALL
GASTEIGER

@<TRIPOS>ATOM
      1 C         141.6049  141.8579  163.4978 C.3     1  UNL1        0.1017
      2 C         141.4351  143.2849  163.0679 C.3     1  UNL1        0.0394
      3 C         141.4537  143.6361  161.6097 C.3     1  UNL1        0.0739
      4 N         141.6420  142.5604  160.5815 N.3     1  UNL1       -0.2704
      5 C         141.8118  141.1334  161.0114 C.3     1  UNL1        0.1037
      6 C         141.7933  140.7821  162.4695 C.3     1  UNL1        0.1490
      7 C         142.7896  141.7805  165.8088 C.2     1  UNL1        0.2488
      8 O         144.0114  142.4056  165.2034 O.2     1  UNL1       -0.2700
      9 N         141.5864  141.5066  164.9560 N.am    1  UNL1       -0.2999
     10 H         140.7845  141.0963  165.3533 H       1  UNL1        0.1498
     11 C         142.5257  140.0124  167.6941 C.ar    1  UNL1        0.1443
     12 C         142.5071  139.6612  169.1522 C.ar    1  UNL1        0.0520
     13 C         142.7339  140.7267  170.1833 C.ar    1  UNL1        0.0553
     14 N         142.7153  140.3754  171.6415 N.pl3   1  UNL1       -0.3563
     15 C         142.9792  142.1435  169.7562 C.ar    1  UNL1        0.0709
     16 CL        143.2060  143.2091  170.7873 Cl      1  UNL1       -0.0810
     17 C         142.9978  142.4948  168.2981 C.ar    1  UNL1        0.0202
     18 C         142.7710  141.4292  167.2670 C.ar    1  UNL1        0.0882
     19 H         142.5543  139.4455  171.9218 H       1  UNL1        0.1424
     20 H         142.8641  141.0748  172.3183 H       1  UNL1        0.1424
     21 C         143.4616  138.1728  166.1161 C.3     1  UNL1        0.2525
     22 O         142.2989  138.9468  166.6630 O.3     1  UNL1       -0.4712
     23 O         141.9631  139.3551  162.8995 O.3     1  UNL1       -0.3505
     24 C         143.1239  138.5520  162.3921 C.3     1  UNL1        0.1741
     25 C         141.6606  142.9117  159.1233 C.3     1  UNL1        0.0760
     26 C         140.3818  143.2546  158.4182 C.3     1  UNL1        0.0646
     27 C         139.1123  142.5411  158.7778 C.3     1  UNL1        0.2068
     28 O         138.2247  143.0874  159.8566 O.3     1  UNL1       -0.4754
     29 C         138.0943  142.3588  161.1612 C.ar    1  UNL1        0.1387
     30 C         138.2054  140.8634  161.1994 C.ar    1  UNL1        0.0392
     31 C         138.0749  140.1347  162.5040 C.ar    1  UNL1        0.0327
     32 C         137.8335  140.9015  163.7704 C.ar    1  UNL1        0.1403
     33 F         137.7031  140.1728  165.0750 F       1  UNL1       -0.2042
     34 C         137.7224  142.3969  163.7322 C.ar    1  UNL1        0.0327
     35 C         137.8529  143.1255  162.4276 C.ar    1  UNL1        0.0392
@<TRIPOS>BOND
     1    21    22    1
     2    22    11    1
     3    11    12   ar
     4    12    13   ar
     5    13    14    1
     6    13    15   ar
     7    15    16    1
     8    15    17   ar
     9    17    18   ar
    10    18     7    1
    11     7     8    2
    12     7     9   am
    13     9     1    1
    14     1     2    1
    15     2     3    1
    16     3     4    1
    17     4    25    1
    18    25    26    1
    19    26    27    1
    20    27    28    1
    21    28    29    1
    22    29    30   ar
    23    30    31   ar
    24    31    32   ar
    25    32    33    1
    26    32    34   ar
    27    34    35   ar
    28     4     5    1
    29     5     6    1
    30     6    23    1
    31    23    24    1
    32    18    11   ar
    33     6     1    1
    34    35    29   ar
    35    14    19    1
    36    14    20    1
    37     9    10    1
@<TRIPOS>MOLECULE
*****
 35 37 0 0 0
SMALL
GASTEIGER

@<TRIPOS>ATOM
      1 C         140.5936  141.8134  163.3011 C.3     1  UNL1        0.1017
      2 C         141.4012  141.3137  162.1401 C.3     1  UNL1        0.0394
      3 C         141.1004  141.7991  160.7530 C.3     1  UNL1        0.0739
      4 N         139.9920  142.7842  160.5270 N.3     1  UNL1       -0.2704
      5 C         139.1844  143.2839  161.6881 C.3     1  UNL1        0.1037
      6 C         139.4852  142.7985  163.0751 C.3     1  UNL1        0.1490
      7 C         142.0727  141.8777  165.4361 C.2     1  UNL1        0.2488
      8 O         142.9503  142.9128  164.7970 O.2     1  UNL1       -0.2700
      9 N         140.8944  141.3280  164.6882 N.am    1  UNL1       -0.2999
     10 H         140.3184  140.6487  165.1077 H       1  UNL1        0.1498
     11 C         142.1433  139.9539  167.1808 C.ar    1  UNL1        0.1443
     12 C         142.4440  139.4685  168.5678 C.ar    1  UNL1        0.0520
     13 C         142.9750  140.4216  169.5973 C.ar    1  UNL1        0.0553
     14 N         143.2758  139.9362  170.9844 N.pl3   1  UNL1       -0.3563
     15 C         143.2052  141.8600  169.2397 C.ar    1  UNL1        0.0709
     16 CL        143.7362  142.8130  170.2691 Cl      1  UNL1       -0.0810
     17 C         142.9045  142.3453  167.8526 C.ar    1  UNL1        0.0202
     18 C         142.3735  141.3923  166.8232 C.ar    1  UNL1        0.0882
     19 H         143.1247  138.9921  171.2191 H       1  UNL1        0.1424
     20 H         143.6243  140.5617  171.6600 H       1  UNL1        0.1424
     21 C         142.5607  138.1735  165.3353 C.3     1  UNL1        0.2525
     22 O         141.6123  139.0008  166.1514 O.3     1  UNL1       -0.4712
     23 O         138.6776  143.2982  164.2362 O.3     1  UNL1       -0.3505
     24 C         139.0257  144.6051  164.8848 C.3     1  UNL1        0.1741
     25 C         139.6912  143.2696  159.1400 C.3     1  UNL1        0.0760
     26 C         139.1982  142.3083  158.0994 C.3     1  UNL1        0.0646
     27 C         138.0641  141.3784  158.4147 C.3     1  UNL1        0.2068
     28 O         138.3344  139.9249  158.6683 O.3     1  UNL1       -0.4754
     29 C         138.5394  139.4337  160.0707 C.ar    1  UNL1        0.1387
     30 C         137.6801  139.9586  161.1824 C.ar    1  UNL1        0.0392
     31 C         137.8851  139.4674  162.5847 C.ar    1  UNL1        0.0327
     32 C         138.9495  138.4512  162.8754 C.ar    1  UNL1        0.1403
     33 F         139.1545  137.9599  164.2778 F       1  UNL1       -0.2042
     34 C         139.8088  137.9262  161.7637 C.ar    1  UNL1        0.0327
     35 C         139.6038  138.4175  160.3613 C.ar    1  UNL1        0.0392
@<TRIPOS>BOND
     1    21    22    1
     2    22    11    1
     3    11    12   ar
     4    12    13   ar
     5    13    14    1
     6    13    15   ar
     7    15    16    1
     8    15    17   ar
     9    17    18   ar
    10    18     7    1
    11     7     8    2
    12     7     9   am
    13     9     1    1
    14     1     2    1
    15     2     3    1
    16     3     4    1
    17     4    25    1
    18    25    26    1
    19    26    27    1
    20    27    28    1
    21    28    29    1
    22    29    30   ar
    23    30    31   ar
    24    31    32   ar
    25    32    33    1
    26    32    34   ar
    27    34    35   ar
    28     4     5    1
    29     5     6    1
    30     6    23    1
    31    23    24    1
    32    18    11   ar
    33     6     1    1
    34    35    29   ar
    35    14    19    1
    36    14    20    1
    37     9    10    1
@<TRIPOS>MOLECULE
*****
 35 37 0 0 0
SMALL
GASTEIGER

@<TRIPOS>ATOM
      1 C         141.9851  140.7458  163.4626 C.3     1  UNL1        0.1017
      2 C         140.9092  140.5821  162.4303 C.3     1  UNL1        0.0394
      3 C         141.2724  140.4751  160.9788 C.3     1  UNL1        0.0739
      4 N         142.7115  140.5319  160.5597 N.3     1  UNL1       -0.2704
      5 C         143.7875  140.6956  161.5920 C.3     1  UNL1        0.1037
      6 C         143.4243  140.8026  163.0434 C.3     1  UNL1        0.1490
      7 C         141.7922  139.6687  165.8190 C.2     1  UNL1        0.2488
      8 O         142.3258  138.3777  165.2726 O.2     1  UNL1       -0.2700
      9 N         141.6219  140.8528  164.9139 N.am    1  UNL1       -0.2999
     10 H         141.2717  141.7001  165.2726 H       1  UNL1        0.1498
     11 C         140.0057  140.0284  167.6707 C.ar    1  UNL1        0.1443
     12 C         139.6425  140.1354  169.1221 C.ar    1  UNL1        0.0520
     13 C         140.7027  139.9898  170.1732 C.ar    1  UNL1        0.0553
     14 N         140.3395  140.0968  171.6247 N.pl3   1  UNL1       -0.3563
     15 C         142.1260  139.7371  169.7729 C.ar    1  UNL1        0.0709
     16 CL        143.1862  139.5915  170.8241 Cl      1  UNL1       -0.0810
     17 C         142.4892  139.6301  168.3215 C.ar    1  UNL1        0.0202
     18 C         141.4290  139.7758  167.2704 C.ar    1  UNL1        0.0882
     19 H         139.4053  140.2626  171.8874 H       1  UNL1        0.1424
     20 H         141.0353  140.0012  172.3146 H       1  UNL1        0.1424
     21 C         138.0772  139.0041  166.2630 C.3     1  UNL1        0.2525
     22 O         138.9455  140.1741  166.6196 O.3     1  UNL1       -0.4712
     23 O         144.5002  140.9663  164.0756 O.3     1  UNL1       -0.3505
     24 C         145.7778  141.6684  163.7225 C.3     1  UNL1        0.1741
     25 C         143.0747  140.4249  159.1083 C.3     1  UNL1        0.0760
     26 C         143.1263  141.6576  158.2552 C.3     1  UNL1        0.0646
     27 C         142.4498  142.9156  158.7135 C.3     1  UNL1        0.2068
     28 O         143.0549  143.7339  159.8154 O.3     1  UNL1       -0.4754
     29 C         142.2503  144.0547  161.0400 C.ar    1  UNL1        0.1387
     30 C         140.7522  144.0795  160.9678 C.ar    1  UNL1        0.0392
     31 C         139.9475  144.4003  162.1923 C.ar    1  UNL1        0.0327
     32 C         140.6409  144.6963  163.4891 C.ar    1  UNL1        0.1403
     33 F         139.8362  145.0171  164.7137 F       1  UNL1       -0.2042
     34 C         142.1390  144.6714  163.5614 C.ar    1  UNL1        0.0327
     35 C         142.9436  144.3506  162.3367 C.ar    1  UNL1        0.0392
@<TRIPOS>BOND
     1    21    22    1
     2    22    11    1
     3    11    12   ar
     4    12    13   ar
     5    13    14    1
     6    13    15   ar
     7    15    16    1
     8    15    17   ar
     9    17    18   ar
    10    18     7    1
    11     7     8    2
    12     7     9   am
    13     9     1    1
    14     1     2    1
    15     2     3    1
    16     3     4    1
    17     4    25    1
    18    25    26    1
    19    26    27    1
    20    27    28    1
    21    28    29    1
    22    29    30   ar
    23    30    31   ar
    24    31    32   ar
    25    32    33    1
    26    32    34   ar
    27    34    35   ar
    28     4     5    1
    29     5     6    1
    30     6    23    1
    31    23    24    1
    32    18    11   ar
    33     6     1    1
    34    35    29   ar
    35    14    19    1
    36    14    20    1
    37     9    10    1
@<TRIPOS>MOLECULE
*****
 35 37 0 0 0
SMALL
GASTEIGER

@<TRIPOS>ATOM
      1 C         142.7207  141.5664  163.1190 C.3     1  UNL1        0.1017
      2 C         141.8011  140.7361  162.2734 C.3     1  UNL1        0.0394
      3 C         141.5617  141.1066  160.8396 C.3     1  UNL1        0.0739
      4 N         142.2418  142.3072  160.2516 N.3     1  UNL1       -0.2704
      5 C         143.1614  143.1375  161.0972 C.3     1  UNL1        0.1037
      6 C         143.4008  142.7671  162.5308 C.3     1  UNL1        0.1490
      7 C         142.0640  141.7373  165.6268 C.2     1  UNL1        0.2488
      8 O         140.9284  142.6490  165.2674 O.2     1  UNL1       -0.2700
      9 N         142.9602  141.1960  164.5526 N.am    1  UNL1       -0.2999
     10 H         143.7055  140.5977  164.7886 H       1  UNL1        0.1498
     11 C         141.6150  140.1726  167.6517 C.ar    1  UNL1        0.1443
     12 C         141.8546  139.8022  169.0854 C.ar    1  UNL1        0.0520
     13 C         142.7826  140.6262  169.9279 C.ar    1  UNL1        0.0553
     14 N         143.0221  140.2557  171.3616 N.pl3   1  UNL1       -0.3563
     15 C         143.4711  141.8205  169.3367 C.ar    1  UNL1        0.0709
     16 CL        144.3991  142.6445  170.1793 Cl      1  UNL1       -0.0810
     17 C         143.2316  142.1909  167.9031 C.ar    1  UNL1        0.0202
     18 C         142.3035  141.3669  167.0606 C.ar    1  UNL1        0.0882
     19 H         142.5702  139.4718  171.7496 H       1  UNL1        0.1424
     20 H         143.6312  140.7965  171.9146 H       1  UNL1        0.1424
     21 C         139.2079  139.5910  166.8661 C.3     1  UNL1        0.2525
     22 O         140.6870  139.3486  166.8092 O.3     1  UNL1       -0.4712
     23 O         144.3204  143.5974  163.3764 O.3     1  UNL1       -0.3505
     24 C         143.7829  144.7733  164.1368 C.3     1  UNL1        0.1741
     25 C         142.0023  142.6776  158.8179 C.3     1  UNL1        0.0760
     26 C         140.6083  142.6698  158.2640 C.3     1  UNL1        0.0646
     27 C         139.5457  143.5198  158.8953 C.3     1  UNL1        0.2068
     28 O         138.6798  142.9540  159.9816 O.3     1  UNL1       -0.4754
     29 C         138.7218  143.5462  161.3591 C.ar    1  UNL1        0.1387
     30 C         137.7720  143.0604  162.4136 C.ar    1  UNL1        0.0392
     31 C         137.8140  143.6526  163.7911 C.ar    1  UNL1        0.0327
     32 C         138.8057  144.7307  164.1141 C.ar    1  UNL1        0.1403
     33 F         138.8476  145.3229  165.4916 F       1  UNL1       -0.2042
     34 C         139.7554  145.2165  163.0596 C.ar    1  UNL1        0.0327
     35 C         139.7134  144.6242  161.6821 C.ar    1  UNL1        0.0392
@<TRIPOS>BOND
     1    21    22    1
     2    22    11    1
     3    11    12   ar
     4    12    13   ar
     5    13    14    1
     6    13    15   ar
     7    15    16    1
     8    15    17   ar
     9    17    18   ar
    10    18     7    1
    11     7     8    2
    12     7     9   am
    13     9     1    1
    14     1     2    1
    15     2     3    1
    16     3     4    1
    17     4    25    1
    18    25    26    1
    19    26    27    1
    20    27    28    1
    21    28    29    1
    22    29    30   ar
    23    30    31   ar
    24    31    32   ar
    25    32    33    1
    26    32    34   ar
    27    34    35   ar
    28     4     5    1
    29     5     6    1
    30     6    23    1
    31    23    24    1
    32    18    11   ar
    33     6     1    1
    34    35    29   ar
    35    14    19    1
    36    14    20    1
    37     9    10    1
@<TRIPOS>MOLECULE
*****
 35 37 0 0 0
SMALL
GASTEIGER

@<TRIPOS>ATOM
      1 C         140.4341  141.5983  163.4217 C.3     1  UNL1        0.1017
      2 C         139.0788  142.1996  163.1946 C.3     1  UNL1        0.0394
      3 C         138.6962  142.6931  161.8306 C.3     1  UNL1        0.0739
      4 N         139.6689  142.5853  160.6939 N.3     1  UNL1       -0.2704
      5 C         141.0242  141.9839  160.9210 C.3     1  UNL1        0.1037
      6 C         141.4068  141.4905  162.2849 C.3     1  UNL1        0.1490
      7 C         141.7499  141.9103  165.6400 C.2     1  UNL1        0.2488
      8 O         142.3006  143.2093  165.1307 O.2     1  UNL1       -0.2700
      9 N         140.8167  141.1048  164.7855 N.am    1  UNL1       -0.2999
     10 H         140.4553  140.2523  165.1198 H       1  UNL1        0.1498
     11 C         142.2688  139.9447  167.2579 C.ar    1  UNL1        0.1443
     12 C         142.6513  139.4513  168.6217 C.ar    1  UNL1        0.0520
     13 C         142.8977  140.4298  169.7316 C.ar    1  UNL1        0.0553
     14 N         143.2802  139.9363  171.0955 N.pl3   1  UNL1       -0.3563
     15 C         142.7614  141.9018  169.4776 C.ar    1  UNL1        0.0709
     16 CL        143.0078  142.8804  170.5874 Cl      1  UNL1       -0.0810
     17 C         142.3789  142.3953  168.1138 C.ar    1  UNL1        0.0202
     18 C         142.1325  141.4168  167.0039 C.ar    1  UNL1        0.0882
     19 H         143.3697  138.9701  171.2622 H       1  UNL1        0.1424
     20 H         143.4419  140.5785  171.8239 H       1  UNL1        0.1424
     21 C         143.1783  138.3945  165.3819 C.3     1  UNL1        0.2525
     22 O         142.0224  138.9662  166.1480 O.3     1  UNL1       -0.4712
     23 O         142.7621  140.8891  162.5120 O.3     1  UNL1       -0.3505
     24 C         143.5322  140.3181  161.3583 C.3     1  UNL1        0.1741
     25 C         139.2863  143.0787  159.3301 C.3     1  UNL1        0.0760
     26 C         138.2797  142.3231  158.5142 C.3     1  UNL1        0.0646
     27 C         138.4093  140.8376  158.3513 C.3     1  UNL1        0.2068
     28 O         137.6764  139.9145  159.2790 O.3     1  UNL1       -0.4754
     29 C         138.4134  139.2270  160.3899 C.ar    1  UNL1        0.1387
     30 C         137.7539  139.0395  161.7240 C.ar    1  UNL1        0.0392
     31 C         138.4910  138.3519  162.8349 C.ar    1  UNL1        0.0327
     32 C         139.8875  137.8519  162.6116 C.ar    1  UNL1        0.1403
     33 F         140.6245  137.1644  163.7225 F       1  UNL1       -0.2042
     34 C         140.5469  138.0395  161.2775 C.ar    1  UNL1        0.0327
     35 C         139.8098  138.7270  160.1666 C.ar    1  UNL1        0.0392
@<TRIPOS>BOND
     1    21    22    1
     2    22    11    1
     3    11    12   ar
     4    12    13   ar
     5    13    14    1
     6    13    15   ar
     7    15    16    1
     8    15    17   ar
     9    17    18   ar
    10    18     7    1
    11     7     8    2
    12     7     9   am
    13     9     1    1
    14     1     2    1
    15     2     3    1
    16     3     4    1
    17     4    25    1
    18    25    26    1
    19    26    27    1
    20    27    28    1
    21    28    29    1
    22    29    30   ar
    23    30    31   ar
    24    31    32   ar
    25    32    33    1
    26    32    34   ar
    27    34    35   ar
    28     4     5    1
    29     5     6    1
    30     6    23    1
    31    23    24    1
    32    18    11   ar
    33     6     1    1
    34    35    29   ar
    35    14    19    1
    36    14    20    1
    37     9    10    1
@<TRIPOS>MOLECULE
*****
 35 37 0 0 0
SMALL
GASTEIGER

@<TRIPOS>ATOM
      1 C         141.8941  141.6464  162.9534 C.3     1  UNL1        0.1017
      2 C         140.9297  141.8079  161.8160 C.3     1  UNL1        0.0394
      3 C         141.4101  142.3275  160.4933 C.3     1  UNL1        0.0739
      4 N         142.8549  142.6856  160.3082 N.3     1  UNL1       -0.2704
      5 C         143.8193  142.5240  161.4456 C.3     1  UNL1        0.1037
      6 C         143.3390  142.0044  162.7682 C.3     1  UNL1        0.1490
      7 C         140.8617  142.0751  165.2986 C.2     1  UNL1        0.2488
      8 O         140.7900  143.5431  164.9987 O.2     1  UNL1       -0.2700
      9 N         141.4138  141.1268  164.2760 N.am    1  UNL1       -0.2999
     10 H         141.4608  140.1633  164.4728 H       1  UNL1        0.1498
     11 C         139.6080  140.2719  166.6867 C.ar    1  UNL1        0.1443
     12 C         139.1277  139.7523  168.0093 C.ar    1  UNL1        0.0520
     13 C         139.4208  140.5163  169.2664 C.ar    1  UNL1        0.0553
     14 N         138.9404  139.9966  170.5891 N.pl3   1  UNL1       -0.3563
     15 C         140.1941  141.7998  169.2010 C.ar    1  UNL1        0.0709
     16 CL        140.4872  142.5638  170.4582 Cl      1  UNL1       -0.0810
     17 C         140.6745  142.3194  167.8784 C.ar    1  UNL1        0.0202
     18 C         140.3814  141.5555  166.6213 C.ar    1  UNL1        0.0882
     19 H         138.4328  139.1542  170.6320 H       1  UNL1        0.1424
     20 H         139.1327  140.4980  171.4142 H       1  UNL1        0.1424
     21 C         138.6924  138.1455  165.5077 C.3     1  UNL1        0.2525
     22 O         139.3149  139.5080  165.4295 O.3     1  UNL1       -0.4712
     23 O         144.3034  141.8429  163.9056 O.3     1  UNL1       -0.3505
     24 C         144.5385  142.9787  164.8567 C.3     1  UNL1        0.1741
     25 C         143.3352  143.2052  158.9856 C.3     1  UNL1        0.0760
     26 C         144.1293  142.3168  158.0744 C.3     1  UNL1        0.0646
     27 C         143.6701  140.9140  157.8073 C.3     1  UNL1        0.2068
     28 O         144.2296  139.7763  158.6090 O.3     1  UNL1       -0.4754
     29 C         143.4150  139.1614  159.7082 C.ar    1  UNL1        0.1387
     30 C         141.9525  138.9000  159.5016 C.ar    1  UNL1        0.0392
     31 C         141.1379  138.2852  160.6008 C.ar    1  UNL1        0.0327
     32 C         141.7858  137.9317  161.9067 C.ar    1  UNL1        0.1403
     33 F         140.9712  137.3169  163.0059 F       1  UNL1       -0.2042
     34 C         143.2483  138.1931  162.1133 C.ar    1  UNL1        0.0327
     35 C         144.0629  138.8080  161.0140 C.ar    1  UNL1        0.0392
@<TRIPOS>BOND
     1    21    22    1
     2    22    11    1
     3    11    12   ar
     4    12    13   ar
     5    13    14    1
     6    13    15   ar
     7    15    16    1
     8    15    17   ar
     9    17    18   ar
    10    18     7    1
    11     7     8    2
    12     7     9   am
    13     9     1    1
    14     1     2    1
    15     2     3    1
    16     3     4    1
    17     4    25    1
    18    25    26    1
    19    26    27    1
    20    27    28    1
    21    28    29    1
    22    29    30   ar
    23    30    31   ar
    24    31    32   ar
    25    32    33    1
    26    32    34   ar
    27    34    35   ar
    28     4     5    1
    29     5     6    1
    30     6    23    1
    31    23    24    1
    32    18    11   ar
    33     6     1    1
    34    35    29   ar
    35    14    19    1
    36    14    20    1
    37     9    10    1
@<TRIPOS>MOLECULE
*****
 35 37 0 0 0
SMALL
GASTEIGER

@<TRIPOS>ATOM
      1 C         141.8677  141.7530  163.3266 C.3     1  UNL1        0.1017
      2 C         142.7175  142.9556  163.0407 C.3     1  UNL1        0.0394
      3 C         143.2410  143.1917  161.6549 C.3     1  UNL1        0.0739
      4 N         142.9147  142.2253  160.5552 N.3     1  UNL1       -0.2704
      5 C         142.0649  141.0227  160.8411 C.3     1  UNL1        0.1037
      6 C         141.5415  140.7866  162.2267 C.3     1  UNL1        0.1490
      7 C         142.0748  140.5950  165.6430 C.2     1  UNL1        0.2488
      8 O         143.3289  139.9092  165.1881 O.2     1  UNL1       -0.2700
      9 N         141.3442  141.5168  164.7123 N.am    1  UNL1       -0.2999
     10 H         140.5211  141.9669  165.0109 H       1  UNL1        0.1498
     11 C         140.0741  140.2458  167.2633 C.ar    1  UNL1        0.1443
     12 C         139.5506  140.0096  168.6489 C.ar    1  UNL1        0.0520
     13 C         140.5043  139.8865  169.8001 C.ar    1  UNL1        0.0553
     14 N         139.9807  139.6504  171.1859 N.pl3   1  UNL1       -0.3563
     15 C         141.9815  139.9996  169.5657 C.ar    1  UNL1        0.0709
     16 CL        142.9352  139.8765  170.7169 Cl      1  UNL1       -0.0810
     17 C         142.5050  140.2357  168.1800 C.ar    1  UNL1        0.0202
     18 C         141.5513  140.3588  167.0288 C.ar    1  UNL1        0.0882
     19 H         139.0112  139.5762  171.3398 H       1  UNL1        0.1424
     20 H         140.6067  139.5696  171.9415 H       1  UNL1        0.1424
     21 C         138.5244  139.1375  165.4969 C.3     1  UNL1        0.2525
     22 O         139.1203  140.3689  166.1121 O.3     1  UNL1       -0.4712
     23 O         140.6917  139.5840  162.5126 O.3     1  UNL1       -0.3505
     24 C         141.3313  138.2392  162.6921 C.3     1  UNL1        0.1741
     25 C         143.4382  142.4615  159.1695 C.3     1  UNL1        0.0760
     26 C         142.9584  143.6415  158.3775 C.3     1  UNL1        0.0646
     27 C         141.7815  144.4383  158.8571 C.3     1  UNL1        0.2068
     28 O         140.4610  143.7636  159.0832 O.3     1  UNL1       -0.4754
     29 C         139.7693  143.8936  160.4077 C.ar    1  UNL1        0.1387
     30 C         138.7955  142.8426  160.8518 C.ar    1  UNL1        0.0392
     31 C         138.1038  142.9727  162.1763 C.ar    1  UNL1        0.0327
     32 C         138.3859  144.1538  163.0570 C.ar    1  UNL1        0.1403
     33 F         137.6942  144.2839  164.3816 F       1  UNL1       -0.2042
     34 C         139.3596  145.2048  162.6130 C.ar    1  UNL1        0.0327
     35 C         140.0514  145.0747  161.2883 C.ar    1  UNL1        0.0392
@<TRIPOS>BOND
     1    21    22    1
     2    22    11    1
     3    11    12   ar
     4    12    13   ar
     5    13    14    1
     6    13    15   ar
     7    15    16    1
     8    15    17   ar
     9    17    18   ar
    10    18     7    1
    11     7     8    2
    12     7     9   am
    13     9     1    1
    14     1     2    1
    15     2     3    1
    16     3     4    1
    17     4    25    1
    18    25    26    1
    19    26    27    1
    20    27    28    1
    21    28    29    1
    22    29    30   ar
    23    30    31   ar
    24    31    32   ar
    25    32    33    1
    26    32    34   ar
    27    34    35   ar
    28     4     5    1
    29     5     6    1
    30     6    23    1
    31    23    24    1
    32    18    11   ar
    33     6     1    1
    34    35    29   ar
    35    14    19    1
    36    14    20    1
    37     9    10    1
@<TRIPOS>MOLECULE
*****
 35 37 0 0 0
SMALL
GASTEIGER

@<TRIPOS>ATOM
      1 C         143.7245  141.5899  163.3737 C.3     1  UNL1        0.1017
      2 C         144.6788  142.6361  162.8790 C.3     1  UNL1        0.0394
      3 C         144.6870  143.0181  161.4285 C.3     1  UNL1        0.0739
      4 N         143.7410  142.3539  160.4726 N.3     1  UNL1       -0.2704
      5 C         142.7867  141.3076  160.9672 C.3     1  UNL1        0.1037
      6 C         142.7784  140.9256  162.4177 C.3     1  UNL1        0.1490
      7 C         142.7458  141.8579  165.7654 C.2     1  UNL1        0.2488
      8 O         141.7837  142.8898  165.2561 O.2     1  UNL1       -0.2700
      9 N         143.7162  141.2079  164.8241 N.am    1  UNL1       -0.2999
     10 H         144.3477  140.5306  165.1584 H       1  UNL1        0.1498
     11 C         142.6256  140.0332  167.6109 C.ar    1  UNL1        0.1443
     12 C         142.6173  139.6512  169.0614 C.ar    1  UNL1        0.0520
     13 C         142.7211  140.7119  170.1169 C.ar    1  UNL1        0.0553
     14 N         142.7129  140.3299  171.5675 N.pl3   1  UNL1       -0.3563
     15 C         142.8331  142.1546  169.7220 C.ar    1  UNL1        0.0709
     16 CL        142.9369  143.2153  170.7775 Cl      1  UNL1       -0.0810
     17 C         142.8414  142.5366  168.2715 C.ar    1  UNL1        0.0202
     18 C         142.7376  141.4758  167.2159 C.ar    1  UNL1        0.0882
     19 H         142.6393  139.3829  171.8267 H       1  UNL1        0.1424
     20 H         142.7810  141.0260  172.2603 H       1  UNL1        0.1424
     21 C         143.6744  138.0450  166.3082 C.3     1  UNL1        0.2525
     22 O         142.5218  138.9724  166.5554 O.3     1  UNL1       -0.4712
     23 O         141.8241  139.8794  162.9123 O.3     1  UNL1       -0.3505
     24 C         142.2145  138.4316  162.8777 C.3     1  UNL1        0.1741
     25 C         143.7493  142.7359  159.0221 C.3     1  UNL1        0.0760
     26 C         142.4832  143.1918  158.3593 C.3     1  UNL1        0.0646
     27 C         141.7992  144.4417  158.8283 C.3     1  UNL1        0.2068
     28 O         141.9352  144.8804  160.2563 O.3     1  UNL1       -0.4754
     29 C         140.8251  144.6184  161.2304 C.ar    1  UNL1        0.1387
     30 C         139.7655  143.6075  160.9059 C.ar    1  UNL1        0.0392
     31 C         138.6553  143.3455  161.8800 C.ar    1  UNL1        0.0327
     32 C         138.6047  144.0945  163.1787 C.ar    1  UNL1        0.1403
     33 F         137.4946  143.8326  164.1527 F       1  UNL1       -0.2042
     34 C         139.6643  145.1054  163.5032 C.ar    1  UNL1        0.0327
     35 C         140.7745  145.3674  162.5290 C.ar    1  UNL1        0.0392
@<TRIPOS>BOND
     1    21    22    1
     2    22    11    1
     3    11    12   ar
     4    12    13   ar
     5    13    14    1
     6    13    15   ar
     7    15    16    1
     8    15    17   ar
     9    17    18   ar
    10    18     7    1
    11     7     8    2
    12     7     9   am
    13     9     1    1
    14     1     2    1
    15     2     3    1
    16     3     4    1
    17     4    25    1
    18    25    26    1
    19    26    27    1
    20    27    28    1
    21    28    29    1
    22    29    30   ar
    23    30    31   ar
    24    31    32   ar
    25    32    33    1
    26    32    34   ar
    27    34    35   ar
    28     4     5    1
    29     5     6    1
    30     6    23    1
    31    23    24    1
    32    18    11   ar
    33     6     1    1
    34    35    29   ar
    35    14    19    1
    36    14    20    1
    37     9    10    1
@<TRIPOS>MOLECULE
*****
 35 37 0 0 0
SMALL
GASTEIGER

@<TRIPOS>ATOM
      1 C         139.6525  142.8855  163.6136 C.3     1  UNL1        0.1017
      2 C         139.9274  144.3225  163.2826 C.3     1  UNL1        0.0394
      3 C         140.0371  144.7544  161.8502 C.3     1  UNL1        0.0739
      4 N         139.8718  143.7494  160.7491 N.3     1  UNL1       -0.2704
      5 C         139.5969  142.3125  161.0801 C.3     1  UNL1        0.1037
      6 C         139.4872  141.8805  162.5123 C.3     1  UNL1        0.1490
      7 C         140.7667  142.0103  165.7913 C.2     1  UNL1        0.2488
      8 O         142.1001  141.9990  165.1046 O.2     1  UNL1       -0.2700
      9 N         139.5428  142.4535  165.0458 N.am    1  UNL1       -0.2999
     10 H         138.6676  142.4610  165.4966 H       1  UNL1        0.1498
     11 C         139.7013  140.4875  167.6069 C.ar    1  UNL1        0.1443
     12 C         139.5916  140.0556  169.0392 C.ar    1  UNL1        0.0520
     13 C         140.4376  140.7144  170.0881 C.ar    1  UNL1        0.0553
     14 N         140.3279  140.2824  171.5204 N.pl3   1  UNL1       -0.3563
     15 C         141.3932  141.8052  169.7048 C.ar    1  UNL1        0.0709
     16 CL        142.2392  142.4640  170.7538 Cl      1  UNL1       -0.0810
     17 C         141.5029  142.2371  168.2726 C.ar    1  UNL1        0.0202
     18 C         140.6569  141.5783  167.2236 C.ar    1  UNL1        0.0882
     19 H         139.7006  139.5665  171.7720 H       1  UNL1        0.1424
     20 H         140.8831  140.7148  172.2089 H       1  UNL1        0.1424
     21 C         137.9075  138.7306  166.9396 C.3     1  UNL1        0.2525
     22 O         138.8553  139.8287  166.5580 O.3     1  UNL1       -0.4712
     23 O         139.2123  140.4436  162.8434 O.3     1  UNL1       -0.3505
     24 C         140.3501  139.4782  162.9963 C.3     1  UNL1        0.1741
     25 C         139.9815  144.1814  159.3168 C.3     1  UNL1        0.0760
     26 C         141.3317  144.3484  158.6851 C.3     1  UNL1        0.0646
     27 C         142.5078  143.5835  159.2159 C.3     1  UNL1        0.2068
     28 O         143.0896  143.9353  160.5530 O.3     1  UNL1       -0.4754
     29 C         143.6747  142.8619  161.4222 C.ar    1  UNL1        0.1387
     30 C         143.2783  141.4301  161.2151 C.ar    1  UNL1        0.0392
     31 C         143.8634  140.3568  162.0843 C.ar    1  UNL1        0.0327
     32 C         144.8448  140.7152  163.1606 C.ar    1  UNL1        0.1403
     33 F         145.4299  139.6418  164.0298 F       1  UNL1       -0.2042
     34 C         145.2412  142.1470  163.3677 C.ar    1  UNL1        0.0327
     35 C         144.6561  143.2204  162.4984 C.ar    1  UNL1        0.0392
@<TRIPOS>BOND
     1    21    22    1
     2    22    11    1
     3    11    12   ar
     4    12    13   ar
     5    13    14    1
     6    13    15   ar
     7    15    16    1
     8    15    17   ar
     9    17    18   ar
    10    18     7    1
    11     7     8    2
    12     7     9   am
    13     9     1    1
    14     1     2    1
    15     2     3    1
    16     3     4    1
    17     4    25    1
    18    25    26    1
    19    26    27    1
    20    27    28    1
    21    28    29    1
    22    29    30   ar
    23    30    31   ar
    24    31    32   ar
    25    32    33    1
    26    32    34   ar
    27    34    35   ar
    28     4     5    1
    29     5     6    1
    30     6    23    1
    31    23    24    1
    32    18    11   ar
    33     6     1    1
    34    35    29   ar
    35    14    19    1
    36    14    20    1
    37     9    10    1
