@<TRIPOS>MOLECULE
*****
 35 37 0 0 0
SMALL
GASTEIGER

@<TRIPOS>ATOM
      1 C         143.0060  140.3219  165.4348 C.2     1  UNL1        0.2521
      2 O         144.0063  139.2049  165.3959 O.2     1  UNL1       -0.2698
      3 N         142.7491  141.1419  164.2053 N.am    1  UNL1       -0.2725
      4 C         141.7488  142.2590  164.2443 C.3     1  UNL1        0.1151
      5 C         141.4919  143.0790  163.0149 C.3     1  UNL1        0.1123
      6 N         142.2354  142.7819  161.7464 N.pl3   1  UNL1       -0.3041
      7 C         143.2357  141.6648  161.7074 C.3     1  UNL1        0.1123
      8 C         143.4925  140.8448  162.9369 C.3     1  UNL1        0.1151
      9 C         140.9173  140.0015  166.9465 C.ar    1  UNL1        0.1432
     10 C         140.1739  140.2987  168.2149 C.ar    1  UNL1        0.0384
     11 C         140.7757  141.2133  169.2402 C.ar    1  UNL1        0.0215
     12 C         142.1208  141.8309  168.9971 C.ar    1  UNL1        0.1061
     13 C         142.8642  141.5337  167.7287 C.ar    1  UNL1        0.0259
     14 C         142.2625  140.6191  166.7033 C.ar    1  UNL1        0.0887
     15 S         142.7226  142.7455  170.0224 S.O2    1  UNL1        0.0105
     16 C         143.3243  143.6602  171.0477 C.3     1  UNL1        0.1816
     17 O         143.9926  142.8024  169.2263 O.2     1  UNL1       -0.1686
     18 O         141.4525  142.6887  170.8185 O.2     1  UNL1       -0.1686
     19 O         140.3156  139.0869  165.9212 O.3     1  UNL1       -0.4702
     20 C         138.0990  140.0867  165.0063 C.3     1  UNL1        0.0566
     21 C         138.8258  139.0145  165.7628 C.3     1  UNL1        0.2599
     22 C         138.0626  137.8700  166.3610 C.3     1  UNL1        0.4340
     23 F         137.2995  136.7256  166.9592 F       1  UNL1       -0.1664
     24 F         138.7973  136.9138  165.4689 F       1  UNL1       -0.1664
     25 F         137.3280  138.8262  167.2532 F       1  UNL1       -0.1664
     26 C         141.9785  143.6018  160.5169 C.ar    1  UNL1        0.0479
     27 C         142.8105  143.3901  159.2868 C.ar    1  UNL1        0.0145
     28 C         142.5536  144.2100  158.0573 C.ar    1  UNL1        0.0051
     29 C         141.4648  145.2418  158.0579 C.ar    1  UNL1        0.0715
     30 C         140.6328  145.4535  159.2879 C.ar    1  UNL1        0.0051
     31 C         140.8897  144.6335  160.5174 C.ar    1  UNL1        0.0145
     32 C         141.2079  146.0618  156.8284 C.3     1  UNL1        0.4186
     33 F         140.9510  146.8817  155.5989 F       1  UNL1       -0.1659
     34 F         139.9566  146.6051  157.4522 F       1  UNL1       -0.1659
     35 F         142.4592  145.5184  156.2046 F       1  UNL1       -0.1659
@<TRIPOS>BOND
     1    20    21    1
     2    21    19    1
     3    19     9    1
     4     9    10   ar
     5    10    11   ar
     6    11    12   ar
     7    12    15    1
     8    15    16    1
     9    15    17    2
    10    15    18    2
    11    12    13   ar
    12    13    14   ar
    13    14     1    1
    14     1     2    2
    15     1     3   am
    16     3     4    1
    17     4     5    1
    18     5     6    1
    19     6    26    1
    20    26    27   ar
    21    27    28   ar
    22    28    29   ar
    23    29    32    1
    24    32    33    1
    25    32    34    1
    26    32    35    1
    27    29    30   ar
    28    30    31   ar
    29     6     7    1
    30     7     8    1
    31    21    22    1
    32    22    23    1
    33    22    24    1
    34    22    25    1
    35    14     9   ar
    36     8     3    1
    37    31    26   ar
@<TRIPOS>MOLECULE
*****
 35 37 0 0 0
SMALL
GASTEIGER

@<TRIPOS>ATOM
      1 C         139.1797  142.2616  164.5848 C.2     1  UNL1        0.2521
      2 O         137.9195  143.0603  164.4301 O.2     1  UNL1       -0.2698
      3 N         140.1143  142.1024  163.4224 N.am    1  UNL1       -0.2725
      4 C         141.3745  141.3037  163.5772 C.3     1  UNL1        0.1151
      5 C         142.3091  141.1445  162.4147 C.3     1  UNL1        0.1123
      6 N         141.9833  141.7839  161.0975 N.pl3   1  UNL1       -0.3041
      7 C         140.7231  142.5826  160.9427 C.3     1  UNL1        0.1123
      8 C         139.7886  142.7418  162.1052 C.3     1  UNL1        0.1151
      9 C         138.9702  140.2591  166.2268 C.ar    1  UNL1        0.1432
     10 C         139.2959  139.6196  167.5439 C.ar    1  UNL1        0.0384
     11 C         140.1569  140.3433  168.5364 C.ar    1  UNL1        0.0215
     12 C         140.6922  141.7064  168.2117 C.ar    1  UNL1        0.1061
     13 C         140.3664  142.3458  166.8945 C.ar    1  UNL1        0.0259
     14 C         139.5054  141.6221  165.9021 C.ar    1  UNL1        0.0887
     15 S         141.5532  142.4300  169.2042 S.O2    1  UNL1        0.0105
     16 C         142.4141  143.1537  170.1967 C.3     1  UNL1        0.1816
     17 O         142.5693  141.3295  169.1252 O.2     1  UNL1       -0.1686
     18 O         140.5370  143.5306  169.2832 O.2     1  UNL1       -0.1686
     19 O         138.1092  139.5354  165.2343 O.3     1  UNL1       -0.4702
     20 C         138.3723  138.9650  162.7133 C.3     1  UNL1        0.0566
     21 C         138.7423  138.7199  164.1461 C.3     1  UNL1        0.2599
     22 C         139.7455  137.6593  164.4908 C.3     1  UNL1        0.4340
     23 F         140.7487  136.5987  164.8354 F       1  UNL1       -0.1664
     24 F         138.7859  137.0743  165.4842 F       1  UNL1       -0.1664
     25 F         140.7051  138.2442  163.4974 F       1  UNL1       -0.1664
     26 C         142.9179  141.6247  159.9350 C.ar    1  UNL1        0.0479
     27 C         143.9248  142.6940  159.6302 C.ar    1  UNL1        0.0145
     28 C         144.8593  142.5348  158.4678 C.ar    1  UNL1        0.0051
     29 C         144.7869  141.3063  157.6101 C.ar    1  UNL1        0.0715
     30 C         143.7801  140.2370  157.9149 C.ar    1  UNL1        0.0051
     31 C         142.8456  140.3963  159.0774 C.ar    1  UNL1        0.0145
     32 C         145.7215  141.1470  156.4477 C.3     1  UNL1        0.4186
     33 F         146.6560  140.9878  155.2852 F       1  UNL1       -0.1659
     34 F         144.9621  139.9320  156.0036 F       1  UNL1       -0.1659
     35 F         146.4808  142.3620  156.8917 F       1  UNL1       -0.1659
@<TRIPOS>BOND
     1    20    21    1
     2    21    19    1
     3    19     9    1
     4     9    10   ar
     5    10    11   ar
     6    11    12   ar
     7    12    15    1
     8    15    16    1
     9    15    17    2
    10    15    18    2
    11    12    13   ar
    12    13    14   ar
    13    14     1    1
    14     1     2    2
    15     1     3   am
    16     3     4    1
    17     4     5    1
    18     5     6    1
    19     6    26    1
    20    26    27   ar
    21    27    28   ar
    22    28    29   ar
    23    29    32    1
    24    32    33    1
    25    32    34    1
    26    32    35    1
    27    29    30   ar
    28    30    31   ar
    29     6     7    1
    30     7     8    1
    31    21    22    1
    32    22    23    1
    33    22    24    1
    34    22    25    1
    35    14     9   ar
    36     8     3    1
    37    31    26   ar
@<TRIPOS>MOLECULE
*****
 35 37 0 0 0
SMALL
GASTEIGER

@<TRIPOS>ATOM
      1 C         140.1738  138.9262  163.8290 C.2     1  UNL1        0.2521
      2 O         139.4734  137.6232  163.5806 O.2     1  UNL1       -0.2698
      3 N         140.1678  139.9938  162.7754 N.am    1  UNL1       -0.2725
      4 C         140.8682  141.2968  163.0239 C.3     1  UNL1        0.1151
      5 C         140.8622  142.3643  161.9702 C.3     1  UNL1        0.1123
      6 N         140.1559  142.1289  160.6680 N.pl3   1  UNL1       -0.3041
      7 C         139.4555  140.8260  160.4195 C.3     1  UNL1        0.1123
      8 C         139.4615  139.7584  161.4732 C.3     1  UNL1        0.1151
      9 C         142.3404  138.8437  165.2606 C.ar    1  UNL1        0.1432
     10 C         143.0467  139.0792  166.5627 C.ar    1  UNL1        0.0384
     11 C         142.2928  139.6325  167.7356 C.ar    1  UNL1        0.0215
     12 C         140.8326  139.9503  167.6062 C.ar    1  UNL1        0.1061
     13 C         140.1263  139.7149  166.3041 C.ar    1  UNL1        0.0259
     14 C         140.8802  139.1616  165.1313 C.ar    1  UNL1        0.0887
     15 S         140.0787  140.5036  168.7791 S.O2    1  UNL1        0.0105
     16 C         139.3248  141.0569  169.9519 C.3     1  UNL1        0.1816
     17 O         141.2136  141.4415  169.0661 O.2     1  UNL1       -0.1686
     18 O         138.9438  139.5657  168.4920 O.2     1  UNL1       -0.1686
     19 O         143.0942  138.2904  164.0878 O.3     1  UNL1       -0.4702
     20 C         143.5923  139.1896  161.7017 C.3     1  UNL1        0.0566
     21 C         143.8505  139.2136  163.1791 C.3     1  UNL1        0.2599
     22 C         144.8651  140.1609  163.7479 C.3     1  UNL1        0.4340
     23 F         145.8796  141.1082  164.3166 F       1  UNL1       -0.1664
     24 F         144.1791  141.3063  163.0641 F       1  UNL1       -0.1664
     25 F         145.5510  139.0156  164.4317 F       1  UNL1       -0.1664
     26 C         140.1499  143.1965  159.6143 C.ar    1  UNL1        0.0479
     27 C         140.7275  144.5483  159.9130 C.ar    1  UNL1        0.0145
     28 C         140.7215  145.6159  158.8593 C.ar    1  UNL1        0.0051
     29 C         140.1379  145.3317  157.5070 C.ar    1  UNL1        0.0715
     30 C         139.5603  143.9799  157.2084 C.ar    1  UNL1        0.0051
     31 C         139.5663  142.9124  158.2621 C.ar    1  UNL1        0.0145
     32 C         140.1320  146.3992  156.4533 C.3     1  UNL1        0.4186
     33 F         140.1260  147.4668  155.3996 F       1  UNL1       -0.1659
     34 F         139.3523  147.2972  157.3675 F       1  UNL1       -0.1659
     35 F         140.9116  145.5013  155.5391 F       1  UNL1       -0.1659
@<TRIPOS>BOND
     1    20    21    1
     2    21    19    1
     3    19     9    1
     4     9    10   ar
     5    10    11   ar
     6    11    12   ar
     7    12    15    1
     8    15    16    1
     9    15    17    2
    10    15    18    2
    11    12    13   ar
    12    13    14   ar
    13    14     1    1
    14     1     2    2
    15     1     3   am
    16     3     4    1
    17     4     5    1
    18     5     6    1
    19     6    26    1
    20    26    27   ar
    21    27    28   ar
    22    28    29   ar
    23    29    32    1
    24    32    33    1
    25    32    34    1
    26    32    35    1
    27    29    30   ar
    28    30    31   ar
    29     6     7    1
    30     7     8    1
    31    21    22    1
    32    22    23    1
    33    22    24    1
    34    22    25    1
    35    14     9   ar
    36     8     3    1
    37    31    26   ar
@<TRIPOS>MOLECULE
*****
 35 37 0 0 0
SMALL
GASTEIGER

@<TRIPOS>ATOM
      1 C         143.2997  140.4459  164.8837 C.2     1  UNL1        0.2521
      2 O         144.4612  139.4977  164.8399 O.2     1  UNL1       -0.2698
      3 N         142.9608  141.2730  163.6791 N.am    1  UNL1       -0.2725
      4 C         141.7993  142.2212  163.7230 C.3     1  UNL1        0.1151
      5 C         141.4604  143.0483  162.5184 C.3     1  UNL1        0.1123
      6 N         142.2831  142.9272  161.2700 N.pl3   1  UNL1       -0.3041
      7 C         143.4446  141.9791  161.2261 C.3     1  UNL1        0.1123
      8 C         143.7834  141.1520  162.4307 C.3     1  UNL1        0.1151
      9 C         141.1928  139.8028  166.2612 C.ar    1  UNL1        0.1432
     10 C         140.3702  139.9239  167.5096 C.ar    1  UNL1        0.0384
     11 C         140.8319  140.8091  168.6291 C.ar    1  UNL1        0.0215
     12 C         142.1161  141.5733  168.5001 C.ar    1  UNL1        0.1061
     13 C         142.9387  141.4522  167.2517 C.ar    1  UNL1        0.0259
     14 C         142.4770  140.5669  166.1322 C.ar    1  UNL1        0.0887
     15 S         142.5777  142.4586  169.6195 S.O2    1  UNL1        0.0105
     16 C         143.0394  143.3439  170.7390 C.3     1  UNL1        0.1816
     17 O         143.8501  142.7363  168.8752 O.2     1  UNL1       -0.1686
     18 O         141.3054  142.1809  170.3639 O.2     1  UNL1       -0.1686
     19 O         140.7312  138.9175  165.1418 O.3     1  UNL1       -0.4702
     20 C         138.6808  137.3272  165.2728 C.3     1  UNL1        0.0566
     21 C         139.2662  138.6673  164.9388 C.3     1  UNL1        0.2599
     22 C         138.3865  139.7572  164.4018 C.3     1  UNL1        0.4340
     23 F         137.5068  140.8470  163.8648 F       1  UNL1       -0.1664
     24 F         139.1445  139.7315  163.1077 F       1  UNL1       -0.1664
     25 F         137.6284  139.7829  165.6958 F       1  UNL1       -0.1664
     26 C         141.9442  143.7543  160.0654 C.ar    1  UNL1        0.0479
     27 C         142.7770  143.6455  158.8225 C.ar    1  UNL1        0.0145
     28 C         142.4381  144.4726  157.6179 C.ar    1  UNL1        0.0051
     29 C         141.2665  145.4086  157.6562 C.ar    1  UNL1        0.0715
     30 C         140.4338  145.5173  158.8990 C.ar    1  UNL1        0.0051
     31 C         140.7727  144.6902  160.1036 C.ar    1  UNL1        0.0145
     32 C         140.9276  146.2357  156.4516 C.3     1  UNL1        0.4186
     33 F         140.5887  147.0628  155.2470 F       1  UNL1       -0.1659
     34 F         142.0789  145.6253  155.7086 F       1  UNL1       -0.1659
     35 F         139.7763  146.8460  157.1945 F       1  UNL1       -0.1659
@<TRIPOS>BOND
     1    20    21    1
     2    21    19    1
     3    19     9    1
     4     9    10   ar
     5    10    11   ar
     6    11    12   ar
     7    12    15    1
     8    15    16    1
     9    15    17    2
    10    15    18    2
    11    12    13   ar
    12    13    14   ar
    13    14     1    1
    14     1     2    2
    15     1     3   am
    16     3     4    1
    17     4     5    1
    18     5     6    1
    19     6    26    1
    20    26    27   ar
    21    27    28   ar
    22    28    29   ar
    23    29    32    1
    24    32    33    1
    25    32    34    1
    26    32    35    1
    27    29    30   ar
    28    30    31   ar
    29     6     7    1
    30     7     8    1
    31    21    22    1
    32    22    23    1
    33    22    24    1
    34    22    25    1
    35    14     9   ar
    36     8     3    1
    37    31    26   ar
@<TRIPOS>MOLECULE
*****
 35 37 0 0 0
SMALL
GASTEIGER

@<TRIPOS>ATOM
      1 C         142.0146  140.4725  162.9923 C.2     1  UNL1        0.2521
      2 O         143.1718  140.2170  163.9119 O.2     1  UNL1       -0.2698
      3 N         141.9276  139.7536  161.6787 N.am    1  UNL1       -0.2725
      4 C         140.7703  140.0091  160.7591 C.3     1  UNL1        0.1151
      5 C         140.6833  139.2902  159.4455 C.3     1  UNL1        0.1123
      6 N         141.7535  138.3158  159.0514 N.pl3   1  UNL1       -0.3041
      7 C         142.9107  138.0603  159.9710 C.3     1  UNL1        0.1123
      8 C         142.9977  138.7792  161.2846 C.3     1  UNL1        0.1151
      9 C         139.9531  141.0821  164.4514 C.ar    1  UNL1        0.1432
     10 C         138.8830  142.0565  164.8454 C.ar    1  UNL1        0.0384
     11 C         138.8040  143.3957  164.1744 C.ar    1  UNL1        0.0215
     12 C         139.7953  143.7605  163.1093 C.ar    1  UNL1        0.1061
     13 C         140.8654  142.7861  162.7153 C.ar    1  UNL1        0.0259
     14 C         140.9444  141.4469  163.3864 C.ar    1  UNL1        0.0887
     15 S         139.7164  145.0997  162.4383 S.O2    1  UNL1        0.0105
     16 C         139.6375  146.4390  161.7673 C.3     1  UNL1        0.1816
     17 O         138.2358  144.9281  162.2698 O.2     1  UNL1       -0.1686
     18 O         141.1970  145.2714  162.6069 O.2     1  UNL1       -0.1686
     19 O         140.0320  139.7428  165.1224 O.3     1  UNL1       -0.4702
     20 C         138.7615  138.2308  163.4343 C.3     1  UNL1        0.0566
     21 C         138.9913  138.7002  164.8403 C.3     1  UNL1        0.2599
     22 C         138.1802  138.1268  165.9644 C.3     1  UNL1        0.4340
     23 F         137.3691  137.5534  167.0884 F       1  UNL1       -0.1664
     24 F         138.7130  136.7600  165.6517 F       1  UNL1       -0.1664
     25 F         137.6473  139.4936  166.2770 F       1  UNL1       -0.1664
     26 C         141.6665  137.5969  157.7378 C.ar    1  UNL1        0.0479
     27 C         140.3867  137.6164  156.9555 C.ar    1  UNL1        0.0145
     28 C         140.2997  136.8975  155.6419 C.ar    1  UNL1        0.0051
     29 C         141.4924  136.1591  155.1105 C.ar    1  UNL1        0.0715
     30 C         142.7721  136.1397  155.8928 C.ar    1  UNL1        0.0051
     31 C         142.8591  136.8586  157.2064 C.ar    1  UNL1        0.0145
     32 C         141.4054  135.4402  153.7969 C.3     1  UNL1        0.4186
     33 F         141.3184  134.7214  152.4833 F       1  UNL1       -0.1659
     34 F         142.8257  134.9836  153.9527 F       1  UNL1       -0.1659
     35 F         139.9851  135.8969  153.6411 F       1  UNL1       -0.1659
@<TRIPOS>BOND
     1    20    21    1
     2    21    19    1
     3    19     9    1
     4     9    10   ar
     5    10    11   ar
     6    11    12   ar
     7    12    15    1
     8    15    16    1
     9    15    17    2
    10    15    18    2
    11    12    13   ar
    12    13    14   ar
    13    14     1    1
    14     1     2    2
    15     1     3   am
    16     3     4    1
    17     4     5    1
    18     5     6    1
    19     6    26    1
    20    26    27   ar
    21    27    28   ar
    22    28    29   ar
    23    29    32    1
    24    32    33    1
    25    32    34    1
    26    32    35    1
    27    29    30   ar
    28    30    31   ar
    29     6     7    1
    30     7     8    1
    31    21    22    1
    32    22    23    1
    33    22    24    1
    34    22    25    1
    35    14     9   ar
    36     8     3    1
    37    31    26   ar
@<TRIPOS>MOLECULE
*****
 35 37 0 0 0
SMALL
GASTEIGER

@<TRIPOS>ATOM
      1 C         139.9179  144.2083  160.3974 C.2     1  UNL1        0.2521
      2 O         139.8856  145.6971  160.2181 O.2     1  UNL1       -0.2698
      3 N         139.9062  143.6185  161.7765 N.am    1  UNL1       -0.2725
      4 C         139.9385  142.1295  161.9558 C.3     1  UNL1        0.1151
      5 C         139.9268  141.5398  163.3350 C.3     1  UNL1        0.1123
      6 N         139.8828  142.4390  164.5348 N.pl3   1  UNL1       -0.3041
      7 C         139.8504  143.9278  164.3555 C.3     1  UNL1        0.1123
      8 C         139.8622  144.5176  162.9764 C.3     1  UNL1        0.1151
      9 C         141.2824  142.8833  158.6275 C.ar    1  UNL1        0.1432
     10 C         141.3264  141.9842  157.4276 C.ar    1  UNL1        0.0384
     11 C         140.0499  141.5108  156.7979 C.ar    1  UNL1        0.0215
     12 C         138.7295  141.9366  157.3680 C.ar    1  UNL1        0.1061
     13 C         138.6855  142.8357  158.5678 C.ar    1  UNL1        0.0259
     14 C         139.9619  143.3091  159.1975 C.ar    1  UNL1        0.0887
     15 S         137.4530  141.4633  156.7383 S.O2    1  UNL1        0.0105
     16 C         136.1765  140.9899  156.1085 C.3     1  UNL1        0.1816
     17 O         137.8741  140.0399  156.9546 O.2     1  UNL1       -0.1686
     18 O         137.0319  142.8866  156.5220 O.2     1  UNL1       -0.1686
     19 O         142.5589  143.3566  159.2572 O.3     1  UNL1       -0.4702
     20 C         143.2248  140.9985  160.1205 C.3     1  UNL1        0.0566
     21 C         143.2679  142.4916  160.2567 C.3     1  UNL1        0.2599
     22 C         144.0200  143.1198  161.3924 C.3     1  UNL1        0.4340
     23 F         144.7720  143.7480  162.5281 F       1  UNL1       -0.1664
     24 F         144.9827  141.9696  161.3912 F       1  UNL1       -0.1664
     25 F         143.0573  144.2701  161.3937 F       1  UNL1       -0.1664
     26 C         139.8711  141.8492  165.9140 C.ar    1  UNL1        0.0479
     27 C         140.4089  142.6375  167.0714 C.ar    1  UNL1        0.0145
     28 C         140.3972  142.0477  168.4505 C.ar    1  UNL1        0.0051
     29 C         139.8477  140.6696  168.6723 C.ar    1  UNL1        0.0715
     30 C         139.3099  139.8814  167.5149 C.ar    1  UNL1        0.0051
     31 C         139.3216  140.4712  166.1358 C.ar    1  UNL1        0.0145
     32 C         139.8359  140.0799  170.0514 C.3     1  UNL1        0.4186
     33 F         139.8242  139.4901  171.4305 F       1  UNL1       -0.1659
     34 F         138.4192  140.5372  170.2349 F       1  UNL1       -0.1659
     35 F         141.2527  139.6225  169.8678 F       1  UNL1       -0.1659
@<TRIPOS>BOND
     1    20    21    1
     2    21    19    1
     3    19     9    1
     4     9    10   ar
     5    10    11   ar
     6    11    12   ar
     7    12    15    1
     8    15    16    1
     9    15    17    2
    10    15    18    2
    11    12    13   ar
    12    13    14   ar
    13    14     1    1
    14     1     2    2
    15     1     3   am
    16     3     4    1
    17     4     5    1
    18     5     6    1
    19     6    26    1
    20    26    27   ar
    21    27    28   ar
    22    28    29   ar
    23    29    32    1
    24    32    33    1
    25    32    34    1
    26    32    35    1
    27    29    30   ar
    28    30    31   ar
    29     6     7    1
    30     7     8    1
    31    21    22    1
    32    22    23    1
    33    22    24    1
    34    22    25    1
    35    14     9   ar
    36     8     3    1
    37    31    26   ar
@<TRIPOS>MOLECULE
*****
 35 37 0 0 0
SMALL
GASTEIGER

@<TRIPOS>ATOM
      1 C         143.5387  142.5178  164.7743 C.2     1  UNL1        0.2521
      2 O         144.5839  143.5649  165.0216 O.2     1  UNL1       -0.2698
      3 N         143.4743  141.8211  163.4475 N.am    1  UNL1       -0.2725
      4 C         142.4290  140.7740  163.2001 C.3     1  UNL1        0.1151
      5 C         142.3646  140.0774  161.8733 C.3     1  UNL1        0.1123
      6 N         143.3454  140.4278  160.7938 N.pl3   1  UNL1       -0.3041
      7 C         144.3906  141.4749  161.0411 C.3     1  UNL1        0.1123
      8 C         144.4550  142.1715  162.3680 C.3     1  UNL1        0.1151
      9 C         141.2137  142.8320  165.8904 C.ar    1  UNL1        0.1432
     10 C         140.2330  142.4815  166.9699 C.ar    1  UNL1        0.0384
     11 C         140.5965  141.4665  168.0128 C.ar    1  UNL1        0.0215
     12 C         141.9407  140.8019  167.9762 C.ar    1  UNL1        0.1061
     13 C         142.9214  141.1524  166.8967 C.ar    1  UNL1        0.0259
     14 C         142.5579  142.1674  165.8538 C.ar    1  UNL1        0.0887
     15 S         142.3042  139.7869  169.0191 S.O2    1  UNL1        0.0105
     16 C         142.6677  138.7719  170.0620 C.3     1  UNL1        0.1816
     17 O         141.5286  140.5614  170.0432 O.2     1  UNL1       -0.1686
     18 O         143.0797  139.0125  167.9950 O.2     1  UNL1       -0.1686
     19 O         140.8502  143.8470  164.8475 O.3     1  UNL1       -0.4702
     20 C         139.5475  143.1154  162.7220 C.3     1  UNL1        0.0566
     21 C         139.5590  143.7196  164.0949 C.3     1  UNL1        0.2599
     22 C         138.2791  144.1965  164.7151 C.3     1  UNL1        0.4340
     23 F         136.9993  144.6734  165.3353 F       1  UNL1       -0.1664
     24 F         138.9992  145.3793  165.2916 F       1  UNL1       -0.1664
     25 F         137.5591  143.0137  164.1386 F       1  UNL1       -0.1664
     26 C         143.2809  139.7311  159.4669 C.ar    1  UNL1        0.0479
     27 C         143.7257  140.4430  158.2237 C.ar    1  UNL1        0.0145
     28 C         143.6613  139.7463  156.8969 C.ar    1  UNL1        0.0051
     29 C         143.1520  138.3378  156.8133 C.ar    1  UNL1        0.0715
     30 C         142.7073  137.6261  158.0565 C.ar    1  UNL1        0.0051
     31 C         142.7717  138.3227  159.3833 C.ar    1  UNL1        0.0145
     32 C         143.0876  137.6411  155.4864 C.3     1  UNL1        0.4186
     33 F         143.0231  136.9444  154.1596 F       1  UNL1       -0.1659
     34 F         144.2260  136.7547  155.8966 F       1  UNL1       -0.1659
     35 F         141.9491  138.5275  155.0763 F       1  UNL1       -0.1659
@<TRIPOS>BOND
     1    20    21    1
     2    21    19    1
     3    19     9    1
     4     9    10   ar
     5    10    11   ar
     6    11    12   ar
     7    12    15    1
     8    15    16    1
     9    15    17    2
    10    15    18    2
    11    12    13   ar
    12    13    14   ar
    13    14     1    1
    14     1     2    2
    15     1     3   am
    16     3     4    1
    17     4     5    1
    18     5     6    1
    19     6    26    1
    20    26    27   ar
    21    27    28   ar
    22    28    29   ar
    23    29    32    1
    24    32    33    1
    25    32    34    1
    26    32    35    1
    27    29    30   ar
    28    30    31   ar
    29     6     7    1
    30     7     8    1
    31    21    22    1
    32    22    23    1
    33    22    24    1
    34    22    25    1
    35    14     9   ar
    36     8     3    1
    37    31    26   ar
@<TRIPOS>MOLECULE
*****
 35 37 0 0 0
SMALL
GASTEIGER

@<TRIPOS>ATOM
      1 C         138.9453  139.7091  165.5534 C.2     1  UNL1        0.2521
      2 O         137.6487  139.1460  166.0550 O.2     1  UNL1       -0.2698
      3 N         139.4145  139.3898  164.1649 N.am    1  UNL1       -0.2725
      4 C         140.7112  139.9529  163.6634 C.3     1  UNL1        0.1151
      5 C         141.1804  139.6336  162.2749 C.3     1  UNL1        0.1123
      6 N         140.3529  138.7512  161.3879 N.pl3   1  UNL1       -0.3041
      7 C         139.0563  138.1881  161.8895 C.3     1  UNL1        0.1123
      8 C         138.5871  138.5074  163.2780 C.3     1  UNL1        0.1151
      9 C         139.7821  142.0757  166.2235 C.ar    1  UNL1        0.1432
     10 C         140.6096  142.9580  167.1104 C.ar    1  UNL1        0.0384
     11 C         141.4279  142.3562  168.2142 C.ar    1  UNL1        0.0215
     12 C         141.4186  140.8720  168.4310 C.ar    1  UNL1        0.1061
     13 C         140.5911  139.9897  167.5441 C.ar    1  UNL1        0.0259
     14 C         139.7729  140.5915  166.4404 C.ar    1  UNL1        0.0887
     15 S         142.2369  140.2702  169.5348 S.O2    1  UNL1        0.0105
     16 C         143.0551  139.6683  170.6385 C.3     1  UNL1        0.1816
     17 O         142.9444  139.4020  168.5369 O.2     1  UNL1       -0.1686
     18 O         141.5293  141.1383  170.5327 O.2     1  UNL1       -0.1686
     19 O         138.9639  142.6775  165.1198 O.3     1  UNL1       -0.4702
     20 C         138.2737  145.0598  165.8932 C.3     1  UNL1        0.0566
     21 C         138.9649  144.1627  164.9096 C.3     1  UNL1        0.2599
     22 C         139.6570  144.7508  163.7158 C.3     1  UNL1        0.4340
     23 F         140.3492  145.3389  162.5221 F       1  UNL1       -0.1664
     24 F         138.3286  144.9770  163.0569 F       1  UNL1       -0.1664
     25 F         140.9854  144.5247  164.3746 F       1  UNL1       -0.1664
     26 C         140.8221  138.4319  159.9994 C.ar    1  UNL1        0.0479
     27 C         142.2668  138.1142  159.7504 C.ar    1  UNL1        0.0145
     28 C         142.7360  137.7949  158.3620 C.ar    1  UNL1        0.0051
     29 C         141.7605  137.7933  157.2225 C.ar    1  UNL1        0.0715
     30 C         140.3158  138.1110  157.4715 C.ar    1  UNL1        0.0051
     31 C         139.8466  138.4303  158.8600 C.ar    1  UNL1        0.0145
     32 C         142.2296  137.4740  155.8340 C.3     1  UNL1        0.4186
     33 F         142.6988  137.1547  154.4455 F       1  UNL1       -0.1659
     34 F         143.4481  138.3215  156.0508 F       1  UNL1       -0.1659
     35 F         141.0111  136.6265  155.6171 F       1  UNL1       -0.1659
@<TRIPOS>BOND
     1    20    21    1
     2    21    19    1
     3    19     9    1
     4     9    10   ar
     5    10    11   ar
     6    11    12   ar
     7    12    15    1
     8    15    16    1
     9    15    17    2
    10    15    18    2
    11    12    13   ar
    12    13    14   ar
    13    14     1    1
    14     1     2    2
    15     1     3   am
    16     3     4    1
    17     4     5    1
    18     5     6    1
    19     6    26    1
    20    26    27   ar
    21    27    28   ar
    22    28    29   ar
    23    29    32    1
    24    32    33    1
    25    32    34    1
    26    32    35    1
    27    29    30   ar
    28    30    31   ar
    29     6     7    1
    30     7     8    1
    31    21    22    1
    32    22    23    1
    33    22    24    1
    34    22    25    1
    35    14     9   ar
    36     8     3    1
    37    31    26   ar
@<TRIPOS>MOLECULE
*****
 35 37 0 0 0
SMALL
GASTEIGER

@<TRIPOS>ATOM
      1 C         138.6499  140.1500  157.5992 C.2     1  UNL1        0.2521
      2 O         138.9896  138.9232  156.8059 O.2     1  UNL1       -0.2698
      3 N         138.7482  140.1265  159.0958 N.am    1  UNL1       -0.2725
      4 C         138.4084  141.3534  159.8892 C.3     1  UNL1        0.1151
      5 C         138.5067  141.3298  161.3858 C.3     1  UNL1        0.1123
      6 N         138.9447  140.0793  162.0890 N.pl3   1  UNL1       -0.3041
      7 C         139.2844  138.8525  161.2956 C.3     1  UNL1        0.1123
      8 C         139.1861  138.8760  159.7991 C.3     1  UNL1        0.1151
      9 C         136.7732  141.5802  156.5117 C.ar    1  UNL1        0.1432
     10 C         136.3352  142.8306  155.8085 C.ar    1  UNL1        0.0384
     11 C         137.3361  143.9015  155.4896 C.ar    1  UNL1        0.0215
     12 C         138.7748  143.7218  155.8738 C.ar    1  UNL1        0.1061
     13 C         139.2127  142.4714  156.5770 C.ar    1  UNL1        0.0259
     14 C         138.2119  141.4005  156.8960 C.ar    1  UNL1        0.0887
     15 S         139.7756  144.7926  155.5549 S.O2    1  UNL1        0.0105
     16 C         140.7764  145.8635  155.2360 C.3     1  UNL1        0.1816
     17 O         139.7682  144.3709  154.1155 O.2     1  UNL1       -0.1686
     18 O         139.7831  145.2144  156.9944 O.2     1  UNL1       -0.1686
     19 O         135.7723  140.5094  156.8306 O.3     1  UNL1       -0.4702
     20 C         135.2569  139.6410  154.4369 C.3     1  UNL1        0.0566
     21 C         134.7814  140.0754  155.7915 C.3     1  UNL1        0.2599
     22 C         133.3149  140.0759  156.1071 C.3     1  UNL1        0.4340
     23 F         131.8486  140.0764  156.4227 F       1  UNL1       -0.1664
     24 F         133.2494  141.5427  155.8002 F       1  UNL1       -0.1664
     25 F         133.3805  138.6092  156.4140 F       1  UNL1       -0.1664
     26 C         139.0430  140.0557  163.5856 C.ar    1  UNL1        0.0479
     27 C         139.5681  141.2526  164.3217 C.ar    1  UNL1        0.0145
     28 C         139.6664  141.2290  165.8183 C.ar    1  UNL1        0.0051
     29 C         139.2395  140.0085  166.5788 C.ar    1  UNL1        0.0715
     30 C         138.7144  138.8117  165.8427 C.ar    1  UNL1        0.0051
     31 C         138.6161  138.8353  164.3461 C.ar    1  UNL1        0.0145
     32 C         139.3378  139.9849  168.0754 C.3     1  UNL1        0.4186
     33 F         139.4360  139.9614  169.5720 F       1  UNL1       -0.1659
     34 F         138.0820  139.1675  168.1449 F       1  UNL1       -0.1659
     35 F         140.5935  140.8024  168.0058 F       1  UNL1       -0.1659
@<TRIPOS>BOND
     1    20    21    1
     2    21    19    1
     3    19     9    1
     4     9    10   ar
     5    10    11   ar
     6    11    12   ar
     7    12    15    1
     8    15    16    1
     9    15    17    2
    10    15    18    2
    11    12    13   ar
    12    13    14   ar
    13    14     1    1
    14     1     2    2
    15     1     3   am
    16     3     4    1
    17     4     5    1
    18     5     6    1
    19     6    26    1
    20    26    27   ar
    21    27    28   ar
    22    28    29   ar
    23    29    32    1
    24    32    33    1
    25    32    34    1
    26    32    35    1
    27    29    30   ar
    28    30    31   ar
    29     6     7    1
    30     7     8    1
    31    21    22    1
    32    22    23    1
    33    22    24    1
    34    22    25    1
    35    14     9   ar
    36     8     3    1
    37    31    26   ar
