@<TRIPOS>MOLECULE
*****
 29 33 0 0 0
SMALL
GASTEIGER

@<TRIPOS>ATOM
      1 C         140.6694  143.2264  162.3835 C.ar    1  UNL1        0.0994
      2 C         140.6966  144.2545  163.4754 C.ar    1  UNL1        0.0207
      3 C         140.4498  143.8451  164.8972 C.ar    1  UNL1        0.0031
      4 C         140.1759  142.4077  165.2271 C.ar    1  UNL1        0.0174
      5 C         139.9292  141.9984  166.6489 C.ar    1  UNL1       -0.0027
      6 C         139.6553  140.5610  166.9788 C.ar    1  UNL1       -0.0207
      7 C         139.6281  139.5329  165.8868 C.ar    1  UNL1       -0.0027
      8 C         139.8748  139.9423  164.4651 C.ar    1  UNL1        0.0188
      9 C         140.1487  141.3797  164.1352 C.ar    1  UNL1        0.0813
     10 N         140.3954  141.7890  162.7134 N.ar    1  UNL1       -0.2438
     11 C         140.5883  144.5088  158.7209 C.ar    1  UNL1        0.1289
     12 N         139.9164  144.2699  160.0405 N.ar    1  UNL1       -0.2352
     13 C         140.9161  143.6357  160.9616 C.ar    1  UNL1        0.1060
     14 C         142.2059  143.4826  160.2112 C.ar    1  UNL1        0.0575
     15 S         142.0033  144.0222  158.8264 S.2     1  UNL1       -0.0644
     16 C         138.9429  148.0527  155.1693 C.3     1  UNL1        0.0594
     17 C         139.1999  146.7549  155.8761 C.ar    1  UNL1        0.0887
     18 N         139.9347  146.5878  157.1731 N.ar    1  UNL1       -0.2406
     19 C         139.9562  145.1260  157.5086 C.ar    1  UNL1        0.1117
     20 C         139.2347  144.3897  156.4190 C.ar    1  UNL1        0.0577
     21 S         138.7673  145.3964  155.4101 S.2     1  UNL1       -0.0702
     22 C         139.4085  140.1517  168.4006 C.3     1  UNL1        0.0437
     23 C         140.5662  139.9188  169.3257 C.3     1  UNL1        0.0768
     24 N         141.5472  141.0218  169.5918 N.3     1  UNL1       -0.2737
     25 C         143.0237  140.9702  169.3321 C.3     1  UNL1        0.0721
     26 C         143.6131  142.2866  169.7441 C.3     1  UNL1        0.0187
     27 C         142.5009  143.1517  170.2585 C.3     1  UNL1        0.0174
     28 C         141.2241  142.3700  170.1644 C.3     1  UNL1        0.0576
     29 C         139.8633  142.8520  170.5714 C.3     1  UNL1        0.0173
@<TRIPOS>BOND
     1    16    17    1
     2    17    18   ar
     3    18    19   ar
     4    19    11    1
     5    11    12   ar
     6    12    13   ar
     7    13     1    1
     8     1     2   ar
     9     2     3   ar
    10     3     4   ar
    11     4     5   ar
    12     5     6   ar
    13     6    22    1
    14    22    23    1
    15    23    24    1
    16    24    25    1
    17    25    26    1
    18    26    27    1
    19    27    28    1
    20    28    29    1
    21     6     7   ar
    22     7     8   ar
    23     8     9   ar
    24     9    10   ar
    25    13    14   ar
    26    14    15   ar
    27    19    20   ar
    28    20    21   ar
    29    21    17   ar
    30    15    11   ar
    31    10     1   ar
    32     9     4   ar
    33    28    24    1
@<TRIPOS>MOLECULE
*****
 29 33 0 0 0
SMALL
GASTEIGER

@<TRIPOS>ATOM
      1 C         142.8207  138.2596  159.9399 C.ar    1  UNL1        0.0994
      2 C         143.9634  139.1467  160.3362 C.ar    1  UNL1        0.0207
      3 C         144.2281  139.4262  161.7859 C.ar    1  UNL1        0.0031
      4 C         143.3500  138.8186  162.8394 C.ar    1  UNL1        0.0174
      5 C         143.6147  139.0981  164.2892 C.ar    1  UNL1       -0.0027
      6 C         142.7366  138.4905  165.3426 C.ar    1  UNL1       -0.0207
      7 C         141.5937  137.6034  164.9463 C.ar    1  UNL1       -0.0027
      8 C         141.3291  137.3239  163.4965 C.ar    1  UNL1        0.0188
      9 C         142.2072  137.9315  162.4431 C.ar    1  UNL1        0.0813
     10 N         141.9425  137.6520  160.9933 N.ar    1  UNL1       -0.2438
     11 C         142.3070  136.8253  156.3699 C.ar    1  UNL1        0.1289
     12 N         142.6567  136.6432  157.8172 N.ar    1  UNL1       -0.2352
     13 C         142.5559  137.9800  158.4901 C.ar    1  UNL1        0.1060
     14 C         142.1441  138.9883  157.4587 C.ar    1  UNL1        0.0575
     15 S         141.9902  138.2746  156.1483 S.2     1  UNL1       -0.0644
     16 C         142.9285  132.1871  153.9243 C.3     1  UNL1        0.0594
     17 C         142.5647  133.6153  154.2031 C.ar    1  UNL1        0.0887
     18 N         142.7944  134.3482  155.4916 N.ar    1  UNL1       -0.2406
     19 C         142.2791  135.7472  155.3273 C.ar    1  UNL1        0.1117
     20 C         141.7309  135.8790  153.9373 C.ar    1  UNL1        0.0577
     21 S         141.9074  134.5614  153.2425 S.2     1  UNL1       -0.0702
     22 C         143.0012  138.7700  166.7924 C.3     1  UNL1        0.0437
     23 C         142.5679  140.0729  167.3963 C.3     1  UNL1        0.0768
     24 N         141.4252  140.1062  168.3675 N.3     1  UNL1       -0.2737
     25 C         141.5389  140.1021  169.8631 C.3     1  UNL1        0.0721
     26 C         140.1522  140.1428  170.4336 C.3     1  UNL1        0.0187
     27 C         139.1815  140.1721  169.2903 C.3     1  UNL1        0.0174
     28 C         139.9683  140.1495  168.0134 C.3     1  UNL1        0.0576
     29 C         139.3981  140.1671  166.6261 C.3     1  UNL1        0.0173
@<TRIPOS>BOND
     1    16    17    1
     2    17    18   ar
     3    18    19   ar
     4    19    11    1
     5    11    12   ar
     6    12    13   ar
     7    13     1    1
     8     1     2   ar
     9     2     3   ar
    10     3     4   ar
    11     4     5   ar
    12     5     6   ar
    13     6    22    1
    14    22    23    1
    15    23    24    1
    16    24    25    1
    17    25    26    1
    18    26    27    1
    19    27    28    1
    20    28    29    1
    21     6     7   ar
    22     7     8   ar
    23     8     9   ar
    24     9    10   ar
    25    13    14   ar
    26    14    15   ar
    27    19    20   ar
    28    20    21   ar
    29    21    17   ar
    30    15    11   ar
    31    10     1   ar
    32     9     4   ar
    33    28    24    1
@<TRIPOS>MOLECULE
*****
 29 33 0 0 0
SMALL
GASTEIGER

@<TRIPOS>ATOM
      1 C         141.2448  138.3478  159.6010 C.ar    1  UNL1        0.0994
      2 C         139.7572  138.5139  159.5032 C.ar    1  UNL1        0.0207
      3 C         138.9058  138.3842  160.7313 C.ar    1  UNL1        0.0031
      4 C         139.5420  138.0884  162.0572 C.ar    1  UNL1        0.0174
      5 C         138.6905  137.9587  163.2853 C.ar    1  UNL1       -0.0027
      6 C         139.3267  137.6629  164.6111 C.ar    1  UNL1       -0.0207
      7 C         140.8143  137.4968  164.7088 C.ar    1  UNL1       -0.0027
      8 C         141.6657  137.6265  163.4807 C.ar    1  UNL1        0.0188
      9 C         141.0295  137.9223  162.1549 C.ar    1  UNL1        0.0813
     10 N         141.8809  138.0520  160.9268 N.ar    1  UNL1       -0.2438
     11 C         143.6770  139.3279  156.7393 C.ar    1  UNL1        0.1289
     12 N         143.0344  139.6068  158.0656 N.ar    1  UNL1       -0.2352
     13 C         142.0962  138.4775  158.3728 C.ar    1  UNL1        0.1060
     14 C         142.1590  137.5005  157.2363 C.ar    1  UNL1        0.0575
     15 S         143.1359  138.0261  156.2267 S.2     1  UNL1       -0.0644
     16 C         147.4757  142.8877  155.8571 C.3     1  UNL1        0.0594
     17 C         146.4299  141.8342  155.6415 C.ar    1  UNL1        0.0887
     18 N         145.5939  141.1906  156.7077 N.ar    1  UNL1       -0.2406
     19 C         144.6838  140.1980  156.0470 C.ar    1  UNL1        0.1117
     20 C         144.9574  140.2282  154.5725 C.ar    1  UNL1        0.0577
     21 S         146.0365  141.2394  154.3218 S.2     1  UNL1       -0.0702
     22 C         138.4753  137.5332  165.8392 C.3     1  UNL1        0.0437
     23 C         138.0629  138.7592  166.5989 C.3     1  UNL1        0.0768
     24 N         139.0434  139.8739  166.8131 N.3     1  UNL1       -0.2737
     25 C         140.0123  139.9892  167.9524 C.3     1  UNL1        0.0721
     26 C         140.7948  141.2557  167.7690 C.3     1  UNL1        0.0187
     27 C         140.3096  141.9231  166.5163 C.3     1  UNL1        0.0174
     28 C         139.2271  141.0692  165.9256 C.3     1  UNL1        0.0576
     29 C         138.4627  141.3595  164.6681 C.3     1  UNL1        0.0173
@<TRIPOS>BOND
     1    16    17    1
     2    17    18   ar
     3    18    19   ar
     4    19    11    1
     5    11    12   ar
     6    12    13   ar
     7    13     1    1
     8     1     2   ar
     9     2     3   ar
    10     3     4   ar
    11     4     5   ar
    12     5     6   ar
    13     6    22    1
    14    22    23    1
    15    23    24    1
    16    24    25    1
    17    25    26    1
    18    26    27    1
    19    27    28    1
    20    28    29    1
    21     6     7   ar
    22     7     8   ar
    23     8     9   ar
    24     9    10   ar
    25    13    14   ar
    26    14    15   ar
    27    19    20   ar
    28    20    21   ar
    29    21    17   ar
    30    15    11   ar
    31    10     1   ar
    32     9     4   ar
    33    28    24    1
@<TRIPOS>MOLECULE
*****
 29 33 0 0 0
SMALL
GASTEIGER

@<TRIPOS>ATOM
      1 C         138.9635  139.5849  161.4801 C.ar    1  UNL1        0.0994
      2 C         138.6737  138.2151  162.0182 C.ar    1  UNL1        0.0207
      3 C         138.6974  137.9700  163.4978 C.ar    1  UNL1        0.0031
      4 C         139.0110  139.0948  164.4394 C.ar    1  UNL1        0.0174
      5 C         139.0347  138.8498  165.9191 C.ar    1  UNL1       -0.0027
      6 C         139.3482  139.9745  166.8607 C.ar    1  UNL1       -0.0207
      7 C         139.6381  141.3444  166.3225 C.ar    1  UNL1       -0.0027
      8 C         139.6144  141.5894  164.8429 C.ar    1  UNL1        0.0188
      9 C         139.3008  140.4646  163.9013 C.ar    1  UNL1        0.0813
     10 N         139.2771  140.7096  162.4217 N.ar    1  UNL1       -0.2438
     11 C         138.1730  140.3727  157.7626 C.ar    1  UNL1        0.1289
     12 N         137.7441  140.2420  159.1940 N.ar    1  UNL1       -0.2352
     13 C         138.9398  139.8299  160.0004 C.ar    1  UNL1        0.1060
     14 C         140.1078  139.7059  159.0674 C.ar    1  UNL1        0.0575
     15 S         139.6339  140.0414  157.6843 S.2     1  UNL1       -0.0644
     16 C         133.9395  141.0681  154.6845 C.3     1  UNL1        0.0594
     17 C         135.3492  141.0853  155.1967 C.ar    1  UNL1        0.0887
     18 N         135.8163  140.5354  156.5117 N.ar    1  UNL1       -0.2406
     19 C         137.2951  140.7657  156.6115 C.ar    1  UNL1        0.1117
     20 C         137.7420  141.4580  155.3582 C.ar    1  UNL1        0.0577
     21 S         136.5394  141.6556  154.4837 S.2     1  UNL1       -0.0702
     22 C         139.3719  139.7295  168.3403 C.3     1  UNL1        0.0437
     23 C         139.5979  140.8717  169.2861 C.3     1  UNL1        0.0768
     24 N         140.9896  141.3693  169.5422 N.3     1  UNL1       -0.2737
     25 C         142.2295  140.5274  169.6040 C.3     1  UNL1        0.0721
     26 C         143.3919  141.4339  169.8815 C.3     1  UNL1        0.0187
     27 C         142.8703  142.8361  169.9913 C.3     1  UNL1        0.0174
     28 C         141.3856  142.7961  169.7816 C.3     1  UNL1        0.0576
     29 C         140.4596  143.9758  169.8069 C.3     1  UNL1        0.0173
@<TRIPOS>BOND
     1    16    17    1
     2    17    18   ar
     3    18    19   ar
     4    19    11    1
     5    11    12   ar
     6    12    13   ar
     7    13     1    1
     8     1     2   ar
     9     2     3   ar
    10     3     4   ar
    11     4     5   ar
    12     5     6   ar
    13     6    22    1
    14    22    23    1
    15    23    24    1
    16    24    25    1
    17    25    26    1
    18    26    27    1
    19    27    28    1
    20    28    29    1
    21     6     7   ar
    22     7     8   ar
    23     8     9   ar
    24     9    10   ar
    25    13    14   ar
    26    14    15   ar
    27    19    20   ar
    28    20    21   ar
    29    21    17   ar
    30    15    11   ar
    31    10     1   ar
    32     9     4   ar
    33    28    24    1
@<TRIPOS>MOLECULE
*****
 29 33 0 0 0
SMALL
GASTEIGER

@<TRIPOS>ATOM
      1 C         142.3720  138.1506  159.8757 C.ar    1  UNL1        0.0994
      2 C         143.5781  138.9937  160.1661 C.ar    1  UNL1        0.0207
      3 C         143.9725  139.2749  161.5857 C.ar    1  UNL1        0.0031
      4 C         143.1608  138.7129  162.7150 C.ar    1  UNL1        0.0174
      5 C         143.5552  138.9941  164.1346 C.ar    1  UNL1       -0.0027
      6 C         142.7435  138.4321  165.2639 C.ar    1  UNL1       -0.0207
      7 C         141.5373  137.5889  164.9735 C.ar    1  UNL1       -0.0027
      8 C         141.1429  137.3078  163.5539 C.ar    1  UNL1        0.0188
      9 C         141.9546  137.8698  162.4246 C.ar    1  UNL1        0.0813
     10 N         141.5603  137.5886  161.0050 N.ar    1  UNL1       -0.2438
     11 C         140.6830  137.7025  156.4099 C.ar    1  UNL1        0.1289
     12 N         140.6332  138.1341  157.8455 N.ar    1  UNL1       -0.2352
     13 C         141.9775  137.8694  158.4560 C.ar    1  UNL1        0.1060
     14 C         142.8582  137.2742  157.3977 C.ar    1  UNL1        0.0575
     15 S         142.0582  137.1710  156.1330 S.2     1  UNL1       -0.0644
     16 C         136.0265  138.8316  154.1912 C.3     1  UNL1        0.0594
     17 C         137.4153  138.3063  154.4042 C.ar    1  UNL1        0.0887
     18 N         138.2368  138.4656  155.6491 N.ar    1  UNL1       -0.2406
     19 C         139.5556  137.7874  155.4240 C.ar    1  UNL1        0.1117
     20 C         139.5491  137.2089  154.0401 C.ar    1  UNL1        0.0577
     21 S         138.2264  137.5296  153.4098 S.2     1  UNL1       -0.0702
     22 C         143.1379  138.7132  166.6835 C.3     1  UNL1        0.0437
     23 C         142.7476  140.0105  167.3276 C.3     1  UNL1        0.0768
     24 N         141.5748  140.0613  168.2613 N.3     1  UNL1       -0.2737
     25 C         141.6296  139.9232  169.7540 C.3     1  UNL1        0.0721
     26 C         140.2299  140.0357  170.2816 C.3     1  UNL1        0.0187
     27 C         139.3101  140.2434  169.1150 C.3     1  UNL1        0.0174
     28 C         140.1413  140.2592  167.8664 C.3     1  UNL1        0.0576
     29 C         139.6289  140.4411  166.4684 C.3     1  UNL1        0.0173
@<TRIPOS>BOND
     1    16    17    1
     2    17    18   ar
     3    18    19   ar
     4    19    11    1
     5    11    12   ar
     6    12    13   ar
     7    13     1    1
     8     1     2   ar
     9     2     3   ar
    10     3     4   ar
    11     4     5   ar
    12     5     6   ar
    13     6    22    1
    14    22    23    1
    15    23    24    1
    16    24    25    1
    17    25    26    1
    18    26    27    1
    19    27    28    1
    20    28    29    1
    21     6     7   ar
    22     7     8   ar
    23     8     9   ar
    24     9    10   ar
    25    13    14   ar
    26    14    15   ar
    27    19    20   ar
    28    20    21   ar
    29    21    17   ar
    30    15    11   ar
    31    10     1   ar
    32     9     4   ar
    33    28    24    1
@<TRIPOS>MOLECULE
*****
 29 33 0 0 0
SMALL
GASTEIGER

@<TRIPOS>ATOM
      1 C         143.0072  138.4716  158.6053 C.ar    1  UNL1        0.0994
      2 C         143.2140  139.8954  158.1813 C.ar    1  UNL1        0.0207
      3 C         143.7165  140.9065  159.1688 C.ar    1  UNL1        0.0031
      4 C         144.0122  140.4938  160.5802 C.ar    1  UNL1        0.0174
      5 C         144.5147  141.5050  161.5677 C.ar    1  UNL1       -0.0027
      6 C         144.8104  141.0923  162.9792 C.ar    1  UNL1       -0.0207
      7 C         144.6036  139.6684  163.4032 C.ar    1  UNL1       -0.0027
      8 C         144.1011  138.6572  162.4157 C.ar    1  UNL1        0.0188
      9 C         143.8054  139.0700  161.0043 C.ar    1  UNL1        0.0813
     10 N         143.3029  138.0589  160.0168 N.ar    1  UNL1       -0.2438
     11 C         142.2229  135.4028  156.3618 C.ar    1  UNL1        0.1289
     12 N         143.0045  136.0546  157.4638 N.ar    1  UNL1       -0.2352
     13 C         142.5047  137.4604  157.6179 C.ar    1  UNL1        0.1060
     14 C         141.4141  137.6775  156.6112 C.ar    1  UNL1        0.0575
     15 S         141.2399  136.4059  155.8349 S.2     1  UNL1       -0.0644
     16 C         144.3871  130.7605  155.0794 C.3     1  UNL1        0.0594
     17 C         143.3889  131.8613  155.2832 C.ar    1  UNL1        0.0887
     18 N         143.6780  133.2200  155.8493 N.ar    1  UNL1       -0.2406
     19 C         142.3941  133.9952  155.8727 C.ar    1  UNL1        0.1117
     20 C         141.3115  133.1157  155.3210 C.ar    1  UNL1        0.0577
     21 S         141.9263  131.7969  154.9567 S.2     1  UNL1       -0.0702
     22 C         145.3129  142.1034  163.9666 C.3     1  UNL1        0.0437
     23 C         144.3565  142.7685  164.9116 C.3     1  UNL1        0.0768
     24 N         143.1945  143.5509  164.3755 N.3     1  UNL1       -0.2737
     25 C         143.2138  144.9968  163.9768 C.3     1  UNL1        0.0721
     26 C         141.8404  145.3643  163.4988 C.3     1  UNL1        0.0187
     27 C         140.9721  144.1454  163.6020 C.3     1  UNL1        0.0174
     28 C         141.8090  143.0247  164.1439 C.3     1  UNL1        0.0576
     29 C         141.3423  141.6238  164.4078 C.3     1  UNL1        0.0173
@<TRIPOS>BOND
     1    16    17    1
     2    17    18   ar
     3    18    19   ar
     4    19    11    1
     5    11    12   ar
     6    12    13   ar
     7    13     1    1
     8     1     2   ar
     9     2     3   ar
    10     3     4   ar
    11     4     5   ar
    12     5     6   ar
    13     6    22    1
    14    22    23    1
    15    23    24    1
    16    24    25    1
    17    25    26    1
    18    26    27    1
    19    27    28    1
    20    28    29    1
    21     6     7   ar
    22     7     8   ar
    23     8     9   ar
    24     9    10   ar
    25    13    14   ar
    26    14    15   ar
    27    19    20   ar
    28    20    21   ar
    29    21    17   ar
    30    15    11   ar
    31    10     1   ar
    32     9     4   ar
    33    28    24    1
@<TRIPOS>MOLECULE
*****
 29 33 0 0 0
SMALL
GASTEIGER

@<TRIPOS>ATOM
      1 C         138.2303  141.0908  160.6447 C.ar    1  UNL1        0.0994
      2 C         137.9817  142.3048  161.4898 C.ar    1  UNL1        0.0207
      3 C         137.9864  142.1912  162.9855 C.ar    1  UNL1        0.0031
      4 C         138.2398  140.8636  163.6360 C.ar    1  UNL1        0.0174
      5 C         138.2445  140.7500  165.1317 C.ar    1  UNL1       -0.0027
      6 C         138.4978  139.4224  165.7822 C.ar    1  UNL1       -0.0207
      7 C         138.7464  138.2083  164.9370 C.ar    1  UNL1       -0.0027
      8 C         138.7417  138.3219  163.4414 C.ar    1  UNL1        0.0188
      9 C         138.4883  139.6495  162.7909 C.ar    1  UNL1        0.0813
     10 N         138.4836  139.7631  161.2952 N.ar    1  UNL1       -0.2438
     11 C         137.7836  140.7696  156.8024 C.ar    1  UNL1        0.1289
     12 N         137.5195  140.2849  158.1971 N.ar    1  UNL1       -0.2352
     13 C         138.2255  141.2044  159.1489 C.ar    1  UNL1        0.1060
     14 C         138.9261  142.2574  158.3425 C.ar    1  UNL1        0.0575
     15 S         138.6529  141.9887  156.8922 S.2     1  UNL1       -0.0644
     16 C         136.9147  137.3258  152.8953 C.3     1  UNL1        0.0594
     17 C         136.8694  138.5619  153.7437 C.ar    1  UNL1        0.0887
     18 N         137.6018  138.7718  155.0358 N.ar    1  UNL1       -0.2406
     19 C         137.2688  140.1449  155.5396 C.ar    1  UNL1        0.1117
     20 C         136.3307  140.7836  154.5588 C.ar    1  UNL1        0.0577
     21 S         136.0838  139.8053  153.4489 S.2     1  UNL1       -0.0702
     22 C         138.5026  139.3087  167.2779 C.3     1  UNL1        0.0437
     23 C         139.6750  139.8151  168.0648 C.3     1  UNL1        0.0768
     24 N         140.9178  140.2632  167.3546 N.3     1  UNL1       -0.2737
     25 C         142.0185  139.3736  166.8574 C.3     1  UNL1        0.0721
     26 C         143.0592  140.2401  166.2123 C.3     1  UNL1        0.0187
     27 C         142.6016  141.6653  166.3108 C.3     1  UNL1        0.0174
     28 C         141.2782  141.6795  167.0168 C.3     1  UNL1        0.0576
     29 C         140.4591  142.8964  167.3300 C.3     1  UNL1        0.0173
@<TRIPOS>BOND
     1    16    17    1
     2    17    18   ar
     3    18    19   ar
     4    19    11    1
     5    11    12   ar
     6    12    13   ar
     7    13     1    1
     8     1     2   ar
     9     2     3   ar
    10     3     4   ar
    11     4     5   ar
    12     5     6   ar
    13     6    22    1
    14    22    23    1
    15    23    24    1
    16    24    25    1
    17    25    26    1
    18    26    27    1
    19    27    28    1
    20    28    29    1
    21     6     7   ar
    22     7     8   ar
    23     8     9   ar
    24     9    10   ar
    25    13    14   ar
    26    14    15   ar
    27    19    20   ar
    28    20    21   ar
    29    21    17   ar
    30    15    11   ar
    31    10     1   ar
    32     9     4   ar
    33    28    24    1
@<TRIPOS>MOLECULE
*****
 29 33 0 0 0
SMALL
GASTEIGER

@<TRIPOS>ATOM
      1 C         140.3190  143.9715  160.1175 C.ar    1  UNL1        0.0994
      2 C         141.6050  143.2607  160.4191 C.ar    1  UNL1        0.0207
      3 C         141.8866  142.7784  161.8112 C.ar    1  UNL1        0.0031
      4 C         140.8824  143.0070  162.9017 C.ar    1  UNL1        0.0174
      5 C         141.1641  142.5247  164.2939 C.ar    1  UNL1       -0.0027
      6 C         140.1599  142.7533  165.3844 C.ar    1  UNL1       -0.0207
      7 C         138.8739  143.4642  165.0828 C.ar    1  UNL1       -0.0027
      8 C         138.5922  143.9464  163.6907 C.ar    1  UNL1        0.0188
      9 C         139.5964  143.7178  162.6001 C.ar    1  UNL1        0.0813
     10 N         139.3148  144.2001  161.2080 N.ar    1  UNL1       -0.2438
     11 C         139.7227  145.9027  156.8038 C.ar    1  UNL1        0.1289
     12 N         140.0641  145.8809  158.2643 N.ar    1  UNL1       -0.2352
     13 C         140.0373  144.4538  158.7253 C.ar    1  UNL1        0.1060
     14 C         139.6792  143.5936  157.5498 C.ar    1  UNL1        0.0575
     15 S         139.4847  144.4890  156.3622 S.2     1  UNL1       -0.0644
     16 C         138.6111  150.7686  155.0812 C.3     1  UNL1        0.0594
     17 C         139.1236  149.3604  155.1453 C.ar    1  UNL1        0.0887
     18 N         138.9754  148.4201  156.3045 N.ar    1  UNL1       -0.2406
     19 C         139.6346  147.1238  155.9371 C.ar    1  UNL1        0.1117
     20 C         140.1902  147.2629  154.5508 C.ar    1  UNL1        0.0577
     21 S         139.8745  148.6452  154.0614 S.2     1  UNL1       -0.0702
     22 C         140.4416  142.2711  166.7766 C.3     1  UNL1        0.0437
     23 C         139.8836  140.9592  167.2431 C.3     1  UNL1        0.0768
     24 N         139.7693  139.8099  166.2861 N.3     1  UNL1       -0.2737
     25 C         138.4950  139.2589  165.7180 C.3     1  UNL1        0.0721
     26 C         138.8474  138.1182  164.8099 C.3     1  UNL1        0.0187
     27 C         140.3395  137.9642  164.8167 C.3     1  UNL1        0.0174
     28 C         140.9092  139.0097  165.7290 C.3     1  UNL1        0.0576
     29 C         142.3636  139.2184  166.0312 C.3     1  UNL1        0.0173
@<TRIPOS>BOND
     1    16    17    1
     2    17    18   ar
     3    18    19   ar
     4    19    11    1
     5    11    12   ar
     6    12    13   ar
     7    13     1    1
     8     1     2   ar
     9     2     3   ar
    10     3     4   ar
    11     4     5   ar
    12     5     6   ar
    13     6    22    1
    14    22    23    1
    15    23    24    1
    16    24    25    1
    17    25    26    1
    18    26    27    1
    19    27    28    1
    20    28    29    1
    21     6     7   ar
    22     7     8   ar
    23     8     9   ar
    24     9    10   ar
    25    13    14   ar
    26    14    15   ar
    27    19    20   ar
    28    20    21   ar
    29    21    17   ar
    30    15    11   ar
    31    10     1   ar
    32     9     4   ar
    33    28    24    1
@<TRIPOS>MOLECULE
*****
 29 33 0 0 0
SMALL
GASTEIGER

@<TRIPOS>ATOM
      1 C         141.1467  144.8192  159.7001 C.ar    1  UNL1        0.0994
      2 C         140.3152  145.3887  160.8109 C.ar    1  UNL1        0.0207
      3 C         140.7331  145.1907  162.2379 C.ar    1  UNL1        0.0031
      4 C         141.9824  144.4231  162.5539 C.ar    1  UNL1        0.0174
      5 C         142.4002  144.2251  163.9809 C.ar    1  UNL1       -0.0027
      6 C         143.6496  143.4575  164.2969 C.ar    1  UNL1       -0.0207
      7 C         144.4812  142.8879  163.1860 C.ar    1  UNL1       -0.0027
      8 C         144.0633  143.0859  161.7591 C.ar    1  UNL1        0.0188
      9 C         142.8139  143.8535  161.4430 C.ar    1  UNL1        0.0813
     10 N         142.3961  144.0516  160.0161 N.ar    1  UNL1       -0.2438
     11 C         140.3734  146.0145  156.0891 C.ar    1  UNL1        0.1289
     12 N         140.9484  146.2542  157.4536 N.ar    1  UNL1       -0.2352
     13 C         140.7289  145.0172  158.2730 C.ar    1  UNL1        0.1060
     14 C         140.0182  144.0129  157.4150 C.ar    1  UNL1        0.0575
     15 S         139.7985  144.6292  156.0652 S.2     1  UNL1       -0.0644
     16 C         139.6007  150.3692  153.2048 C.3     1  UNL1        0.0594
     17 C         140.0181  148.9905  153.6229 C.ar    1  UNL1        0.0887
     18 N         139.7988  148.3742  154.9727 N.ar    1  UNL1       -0.2406
     19 C         140.3733  146.9889  154.9487 C.ar    1  UNL1        0.1117
     20 C         140.9478  146.7490  153.5840 C.ar    1  UNL1        0.0577
     21 S         140.7283  147.9860  152.7646 S.2     1  UNL1       -0.0702
     22 C         144.0675  143.2595  165.7239 C.3     1  UNL1        0.0437
     23 C         143.5130  142.1123  166.5155 C.3     1  UNL1        0.0768
     24 N         142.4786  142.3611  167.5728 N.3     1  UNL1       -0.2737
     25 C         141.0031  142.5079  167.3456 C.3     1  UNL1        0.0721
     26 C         140.3506  142.7444  168.6754 C.3     1  UNL1        0.0187
     27 C         141.4229  142.7438  169.7244 C.3     1  UNL1        0.0174
     28 C         142.7380  142.5070  169.0430 C.3     1  UNL1        0.0576
     29 C         144.0773  142.4295  169.7139 C.3     1  UNL1        0.0173
@<TRIPOS>BOND
     1    16    17    1
     2    17    18   ar
     3    18    19   ar
     4    19    11    1
     5    11    12   ar
     6    12    13   ar
     7    13     1    1
     8     1     2   ar
     9     2     3   ar
    10     3     4   ar
    11     4     5   ar
    12     5     6   ar
    13     6    22    1
    14    22    23    1
    15    23    24    1
    16    24    25    1
    17    25    26    1
    18    26    27    1
    19    27    28    1
    20    28    29    1
    21     6     7   ar
    22     7     8   ar
    23     8     9   ar
    24     9    10   ar
    25    13    14   ar
    26    14    15   ar
    27    19    20   ar
    28    20    21   ar
    29    21    17   ar
    30    15    11   ar
    31    10     1   ar
    32     9     4   ar
    33    28    24    1
