@<TRIPOS>MOLECULE
*****
 20 21 0 0 0
SMALL
GASTEIGER

@<TRIPOS>ATOM
      1 C         141.1985  144.3350  164.1648 C.ar    1  UNL1        0.0267
      2 C         142.2128  145.4094  163.9066 C.ar    1  UNL1        0.0001
      3 C         143.6769  145.0974  164.0028 C.ar    1  UNL1       -0.0001
      4 C         144.1265  143.7109  164.3571 C.ar    1  UNL1        0.0031
      5 C         143.1122  142.6365  164.6152 C.ar    1  UNL1        0.0372
      6 C         141.6481  142.9486  164.5191 C.ar    1  UNL1        0.1425
      7 C         138.9390  144.9039  165.3141 C.3     1  UNL1        0.0223
      8 C         139.7344  144.6470  164.0687 C.3     1  UNL1        0.0832
      9 N         139.0659  144.7022  162.7271 N.3     1  UNL1       -0.2678
     10 C         139.3873  145.8150  161.7741 C.3     1  UNL1        0.0899
     11 C         138.0758  143.6444  162.3384 C.3     1  UNL1        0.0899
     12 O         140.6338  141.8741  164.7773 O.3     1  UNL1       -0.4537
     13 C         140.3042  141.4766  166.1856 C.ar    1  UNL1        0.1462
     14 C         139.5999  140.1795  166.4535 C.ar    1  UNL1        0.0384
     15 C         139.2704  139.7820  167.8618 C.ar    1  UNL1        0.0154
     16 C         139.6450  140.6816  169.0022 C.ar    1  UNL1        0.0684
     17 CL        139.3154  140.2841  170.4105 Cl      1  UNL1       -0.0814
     18 C         140.3491  141.9786  168.7343 C.ar    1  UNL1        0.0712
     19 CL        140.7237  142.8781  169.8747 Cl      1  UNL1       -0.0813
     20 C         140.6788  142.3761  167.3260 C.ar    1  UNL1        0.0497
@<TRIPOS>BOND
     1     7     8    1
     2     8     1    1
     3     1     2   ar
     4     2     3   ar
     5     3     4   ar
     6     4     5   ar
     7     5     6   ar
     8     6    12    1
     9    12    13    1
    10    13    14   ar
    11    14    15   ar
    12    15    16   ar
    13    16    17    1
    14    16    18   ar
    15    18    19    1
    16    18    20   ar
    17     8     9    1
    18     9    10    1
    19     9    11    1
    20     6     1   ar
    21    20    13   ar
@<TRIPOS>MOLECULE
*****
 20 21 0 0 0
SMALL
GASTEIGER

@<TRIPOS>ATOM
      1 C         143.6858  140.1755  164.2805 C.ar    1  UNL1        0.0267
      2 C         145.1555  140.3514  164.0377 C.ar    1  UNL1        0.0001
      3 C         145.7045  141.7085  163.7107 C.ar    1  UNL1       -0.0001
      4 C         144.7838  142.8897  163.6265 C.ar    1  UNL1        0.0031
      5 C         143.3141  142.7137  163.8694 C.ar    1  UNL1        0.0372
      6 C         142.7651  141.3566  164.1963 C.ar    1  UNL1        0.1425
      7 C         143.3343  138.2395  165.9771 C.3     1  UNL1        0.0223
      8 C         143.1369  138.8184  164.6075 C.3     1  UNL1        0.0832
      9 N         142.3904  138.0402  163.5649 N.3     1  UNL1       -0.2678
     10 C         142.8505  138.0657  162.1374 C.3     1  UNL1        0.0899
     11 C         141.1838  137.2363  163.9497 C.3     1  UNL1        0.0899
     12 O         141.2954  141.1807  164.4392 O.3     1  UNL1       -0.4537
     13 C         140.7719  141.0959  165.8423 C.ar    1  UNL1        0.1462
     14 C         139.9605  139.9087  166.2696 C.ar    1  UNL1        0.0384
     15 C         139.4370  139.8238  167.6727 C.ar    1  UNL1        0.0154
     16 C         139.7249  140.9260  168.6485 C.ar    1  UNL1        0.0684
     17 CL        139.2014  140.8412  170.0516 Cl      1  UNL1       -0.0814
     18 C         140.5362  142.1131  168.2213 C.ar    1  UNL1        0.0712
     19 CL        140.8240  143.2153  169.1972 Cl      1  UNL1       -0.0813
     20 C         141.0597  142.1981  166.8181 C.ar    1  UNL1        0.0497
@<TRIPOS>BOND
     1     7     8    1
     2     8     1    1
     3     1     2   ar
     4     2     3   ar
     5     3     4   ar
     6     4     5   ar
     7     5     6   ar
     8     6    12    1
     9    12    13    1
    10    13    14   ar
    11    14    15   ar
    12    15    16   ar
    13    16    17    1
    14    16    18   ar
    15    18    19    1
    16    18    20   ar
    17     8     9    1
    18     9    10    1
    19     9    11    1
    20     6     1   ar
    21    20    13   ar
@<TRIPOS>MOLECULE
*****
 20 21 0 0 0
SMALL
GASTEIGER

@<TRIPOS>ATOM
      1 C         141.3137  138.7745  165.5463 C.ar    1  UNL1        0.0267
      2 C         140.4679  137.6903  164.9471 C.ar    1  UNL1        0.0001
      3 C         138.9794  137.7117  165.1319 C.ar    1  UNL1       -0.0001
      4 C         138.3368  138.8173  165.9159 C.ar    1  UNL1        0.0031
      5 C         139.1827  139.9015  166.5150 C.ar    1  UNL1        0.0372
      6 C         140.6711  139.8801  166.3302 C.ar    1  UNL1        0.1425
      7 C         143.6770  138.1085  166.3954 C.3     1  UNL1        0.0223
      8 C         142.8021  138.7531  165.3615 C.3     1  UNL1        0.0832
      9 N         143.4156  139.3762  164.1428 N.3     1  UNL1       -0.2678
     10 C         142.5380  139.8817  163.0363 C.3     1  UNL1        0.0899
     11 C         144.9068  139.4940  164.0305 C.3     1  UNL1        0.0899
     12 O         141.5169  140.9644  166.9294 O.3     1  UNL1       -0.4537
     13 C         142.0764  142.0481  166.0562 C.ar    1  UNL1        0.1462
     14 C         143.5476  142.3400  166.0727 C.ar    1  UNL1        0.0384
     15 C         144.1071  143.4237  165.1995 C.ar    1  UNL1        0.0154
     16 C         143.1953  144.2156  164.3098 C.ar    1  UNL1        0.0684
     17 CL        143.7548  145.2993  163.4366 Cl      1  UNL1       -0.0814
     18 C         141.7241  143.9238  164.2933 C.ar    1  UNL1        0.0712
     19 CL        140.8124  144.7157  163.4036 Cl      1  UNL1       -0.0813
     20 C         141.1646  142.8400  165.1665 C.ar    1  UNL1        0.0497
@<TRIPOS>BOND
     1     7     8    1
     2     8     1    1
     3     1     2   ar
     4     2     3   ar
     5     3     4   ar
     6     4     5   ar
     7     5     6   ar
     8     6    12    1
     9    12    13    1
    10    13    14   ar
    11    14    15   ar
    12    15    16   ar
    13    16    17    1
    14    16    18   ar
    15    18    19    1
    16    18    20   ar
    17     8     9    1
    18     9    10    1
    19     9    11    1
    20     6     1   ar
    21    20    13   ar
@<TRIPOS>MOLECULE
*****
 20 21 0 0 0
SMALL
GASTEIGER

@<TRIPOS>ATOM
      1 C         139.7977  140.7459  167.7296 C.ar    1  UNL1        0.0267
      2 C         138.9017  139.5720  167.9921 C.ar    1  UNL1        0.0001
      3 C         138.0761  138.9952  166.8804 C.ar    1  UNL1       -0.0001
      4 C         138.1466  139.5925  165.5062 C.ar    1  UNL1        0.0031
      5 C         139.0426  140.7664  165.2438 C.ar    1  UNL1        0.0372
      6 C         139.8681  141.3432  166.3555 C.ar    1  UNL1        0.1425
      7 C         139.9895  142.2315  169.8524 C.3     1  UNL1        0.0223
      8 C         140.6232  141.3227  168.8413 C.3     1  UNL1        0.0832
      9 N         142.0825  140.9906  168.9419 N.3     1  UNL1       -0.2678
     10 C         143.0975  142.0912  169.0337 C.3     1  UNL1        0.0899
     11 C         142.5268  139.5579  168.9507 C.3     1  UNL1        0.0899
     12 O         140.7642  142.5172  166.0930 O.3     1  UNL1       -0.4537
     13 C         142.0952  142.3120  165.4325 C.ar    1  UNL1        0.1462
     14 C         142.8183  143.4771  164.8243 C.ar    1  UNL1        0.0384
     15 C         144.1492  143.2718  164.1638 C.ar    1  UNL1        0.0154
     16 C         144.7572  141.9015  164.1114 C.ar    1  UNL1        0.0684
     17 CL        146.0882  141.6963  163.4509 Cl      1  UNL1       -0.0814
     18 C         144.0342  140.7365  164.7195 C.ar    1  UNL1        0.0712
     19 CL        144.6421  139.3662  164.6671 Cl      1  UNL1       -0.0813
     20 C         142.7031  140.9417  165.3801 C.ar    1  UNL1        0.0497
@<TRIPOS>BOND
     1     7     8    1
     2     8     1    1
     3     1     2   ar
     4     2     3   ar
     5     3     4   ar
     6     4     5   ar
     7     5     6   ar
     8     6    12    1
     9    12    13    1
    10    13    14   ar
    11    14    15   ar
    12    15    16   ar
    13    16    17    1
    14    16    18   ar
    15    18    19    1
    16    18    20   ar
    17     8     9    1
    18     9    10    1
    19     9    11    1
    20     6     1   ar
    21    20    13   ar
@<TRIPOS>MOLECULE
*****
 20 21 0 0 0
SMALL
GASTEIGER

@<TRIPOS>ATOM
      1 C         140.0010  140.0816  168.0718 C.ar    1  UNL1        0.0267
      2 C         139.5013  140.7156  169.3359 C.ar    1  UNL1        0.0001
      3 C         140.4336  140.9164  170.4937 C.ar    1  UNL1       -0.0001
      4 C         141.8657  140.4832  170.3873 C.ar    1  UNL1        0.0031
      5 C         142.3655  139.8492  169.1231 C.ar    1  UNL1        0.0372
      6 C         141.4331  139.6484  167.9654 C.ar    1  UNL1        0.1425
      7 C         138.0557  138.7752  166.9498 C.3     1  UNL1        0.0223
      8 C         139.0687  139.8808  166.9140 C.3     1  UNL1        0.0832
      9 N         139.1494  140.7857  165.7204 N.3     1  UNL1       -0.2678
     10 C         139.6321  142.1969  165.8803 C.3     1  UNL1        0.0899
     11 C         138.7474  140.2794  164.3668 C.3     1  UNL1        0.0899
     12 O         141.9330  139.0143  166.7011 O.3     1  UNL1       -0.4537
     13 C         142.9514  139.7231  165.8584 C.ar    1  UNL1        0.1462
     14 C         143.8847  138.9346  164.9881 C.ar    1  UNL1        0.0384
     15 C         144.9032  139.6435  164.1453 C.ar    1  UNL1        0.0154
     16 C         144.9884  141.1408  164.1728 C.ar    1  UNL1        0.0684
     17 CL        146.0069  141.8496  163.3301 Cl      1  UNL1       -0.0814
     18 C         144.0552  141.9293  165.0431 C.ar    1  UNL1        0.0712
     19 CL        144.1405  143.4266  165.0706 Cl      1  UNL1       -0.0813
     20 C         143.0367  141.2205  165.8859 C.ar    1  UNL1        0.0497
@<TRIPOS>BOND
     1     7     8    1
     2     8     1    1
     3     1     2   ar
     4     2     3   ar
     5     3     4   ar
     6     4     5   ar
     7     5     6   ar
     8     6    12    1
     9    12    13    1
    10    13    14   ar
    11    14    15   ar
    12    15    16   ar
    13    16    17    1
    14    16    18   ar
    15    18    19    1
    16    18    20   ar
    17     8     9    1
    18     9    10    1
    19     9    11    1
    20     6     1   ar
    21    20    13   ar
@<TRIPOS>MOLECULE
*****
 20 21 0 0 0
SMALL
GASTEIGER

@<TRIPOS>ATOM
      1 C         138.8818  141.7399  164.7019 C.ar    1  UNL1        0.0267
      2 C         137.6771  142.6087  164.4922 C.ar    1  UNL1        0.0001
      3 C         137.8256  144.1008  164.4556 C.ar    1  UNL1       -0.0001
      4 C         139.1789  144.7243  164.6287 C.ar    1  UNL1        0.0031
      5 C         140.3835  143.8556  164.8384 C.ar    1  UNL1        0.0372
      6 C         140.2350  142.3634  164.8750 C.ar    1  UNL1        0.1425
      7 C         138.3656  139.5619  166.0209 C.3     1  UNL1        0.0223
      8 C         138.7332  140.2478  164.7386 C.3     1  UNL1        0.0832
      9 N         138.9523  139.4414  163.4929 N.3     1  UNL1       -0.2678
     10 C         137.9844  139.5462  162.3517 C.3     1  UNL1        0.0899
     11 C         140.1393  138.5303  163.3883 C.3     1  UNL1        0.0899
     12 O         141.4398  141.4947  165.0848 O.3     1  UNL1       -0.4537
     13 C         141.8647  141.1246  166.4748 C.ar    1  UNL1        0.1462
     14 C         142.1448  139.6912  166.8170 C.ar    1  UNL1        0.0384
     15 C         142.5697  139.3211  168.2070 C.ar    1  UNL1        0.0154
     16 C         142.7147  140.3844  169.2551 C.ar    1  UNL1        0.0684
     17 CL        143.1397  140.0143  170.6452 Cl      1  UNL1       -0.0814
     18 C         142.4347  141.8178  168.9130 C.ar    1  UNL1        0.0712
     19 CL        142.5797  142.8810  169.9611 Cl      1  UNL1       -0.0813
     20 C         142.0097  142.1879  167.5229 C.ar    1  UNL1        0.0497
@<TRIPOS>BOND
     1     7     8    1
     2     8     1    1
     3     1     2   ar
     4     2     3   ar
     5     3     4   ar
     6     4     5   ar
     7     5     6   ar
     8     6    12    1
     9    12    13    1
    10    13    14   ar
    11    14    15   ar
    12    15    16   ar
    13    16    17    1
    14    16    18   ar
    15    18    19    1
    16    18    20   ar
    17     8     9    1
    18     9    10    1
    19     9    11    1
    20     6     1   ar
    21    20    13   ar
@<TRIPOS>MOLECULE
*****
 20 21 0 0 0
SMALL
GASTEIGER

@<TRIPOS>ATOM
      1 C         140.3508  140.4895  167.4767 C.ar    1  UNL1        0.0267
      2 C         139.5199  140.0866  168.6587 C.ar    1  UNL1        0.0001
      3 C         139.3477  141.0310  169.8113 C.ar    1  UNL1       -0.0001
      4 C         140.0065  142.3782  169.7819 C.ar    1  UNL1        0.0031
      5 C         140.8374  142.7811  168.5999 C.ar    1  UNL1        0.0372
      6 C         141.0096  141.8368  167.4473 C.ar    1  UNL1        0.1425
      7 C         141.8878  139.0312  165.9730 C.3     1  UNL1        0.0223
      8 C         140.5230  139.5452  166.3240 C.3     1  UNL1        0.0832
      9 N         139.3305  139.1149  165.5224 N.3     1  UNL1       -0.2678
     10 C         139.2208  137.6978  165.0429 C.3     1  UNL1        0.0899
     11 C         138.2475  140.1016  165.2004 C.3     1  UNL1        0.0899
     12 O         141.8406  142.2398  166.2652 O.3     1  UNL1       -0.4537
     13 C         141.2760  143.1715  165.2342 C.ar    1  UNL1        0.1462
     14 C         142.1966  143.9952  164.3833 C.ar    1  UNL1        0.0384
     15 C         141.6320  144.9270  163.3523 C.ar    1  UNL1        0.0154
     16 C         140.1468  145.0351  163.1721 C.ar    1  UNL1        0.0684
     17 CL        139.5822  145.9668  162.1411 Cl      1  UNL1       -0.0814
     18 C         139.2262  144.2114  164.0230 C.ar    1  UNL1        0.0712
     19 CL        137.7410  144.3195  163.8428 Cl      1  UNL1       -0.0813
     20 C         139.7908  143.2796  165.0540 C.ar    1  UNL1        0.0497
@<TRIPOS>BOND
     1     7     8    1
     2     8     1    1
     3     1     2   ar
     4     2     3   ar
     5     3     4   ar
     6     4     5   ar
     7     5     6   ar
     8     6    12    1
     9    12    13    1
    10    13    14   ar
    11    14    15   ar
    12    15    16   ar
    13    16    17    1
    14    16    18   ar
    15    18    19    1
    16    18    20   ar
    17     8     9    1
    18     9    10    1
    19     9    11    1
    20     6     1   ar
    21    20    13   ar
@<TRIPOS>MOLECULE
*****
 20 21 0 0 0
SMALL
GASTEIGER

@<TRIPOS>ATOM
      1 C         141.2559  139.5842  165.5858 C.ar    1  UNL1        0.0267
      2 C         141.4922  138.1822  165.1080 C.ar    1  UNL1        0.0001
      3 C         140.3363  137.3374  164.6607 C.ar    1  UNL1       -0.0001
      4 C         138.9440  137.8946  164.6913 C.ar    1  UNL1        0.0031
      5 C         138.7076  139.2966  165.1692 C.ar    1  UNL1        0.0372
      6 C         139.8636  140.1414  165.6164 C.ar    1  UNL1        0.1425
      7 C         143.3820  140.9676  165.0238 C.3     1  UNL1        0.0223
      8 C         142.4118  140.4291  166.0331 C.3     1  UNL1        0.0832
      9 N         142.5976  140.7353  167.4897 N.3     1  UNL1       -0.2678
     10 C         142.9624  142.1241  167.9235 C.3     1  UNL1        0.0899
     11 C         142.4186  139.6528  168.5125 C.3     1  UNL1        0.0899
     12 O         139.6272  141.5435  166.0943 O.3     1  UNL1       -0.4537
     13 C         139.5775  142.6734  165.1089 C.ar    1  UNL1        0.1462
     14 C         138.3159  142.9474  164.3450 C.ar    1  UNL1        0.0384
     15 C         138.2662  144.0773  163.3597 C.ar    1  UNL1        0.0154
     16 C         139.4780  144.9331  163.1382 C.ar    1  UNL1        0.0684
     17 CL        139.4284  146.0629  162.1528 Cl      1  UNL1       -0.0814
     18 C         140.7395  144.6591  163.9020 C.ar    1  UNL1        0.0712
     19 CL        141.9513  145.5149  163.6805 Cl      1  UNL1       -0.0813
     20 C         140.7893  143.5292  164.8874 C.ar    1  UNL1        0.0497
@<TRIPOS>BOND
     1     7     8    1
     2     8     1    1
     3     1     2   ar
     4     2     3   ar
     5     3     4   ar
     6     4     5   ar
     7     5     6   ar
     8     6    12    1
     9    12    13    1
    10    13    14   ar
    11    14    15   ar
    12    15    16   ar
    13    16    17    1
    14    16    18   ar
    15    18    19    1
    16    18    20   ar
    17     8     9    1
    18     9    10    1
    19     9    11    1
    20     6     1   ar
    21    20    13   ar
@<TRIPOS>MOLECULE
*****
 20 21 0 0 0
SMALL
GASTEIGER

@<TRIPOS>ATOM
      1 C         139.8536  140.7038  168.0083 C.ar    1  UNL1        0.0267
      2 C         138.9095  139.5521  168.1878 C.ar    1  UNL1        0.0001
      3 C         138.1213  139.0392  167.0192 C.ar    1  UNL1       -0.0001
      4 C         138.2772  139.6779  165.6710 C.ar    1  UNL1        0.0031
      5 C         139.2213  140.8296  165.4915 C.ar    1  UNL1        0.0372
      6 C         140.0095  141.3425  166.6601 C.ar    1  UNL1        0.1425
      7 C         139.9970  142.1366  170.1708 C.3     1  UNL1        0.0223
      8 C         140.6418  141.2167  169.1769 C.3     1  UNL1        0.0832
      9 N         142.0749  140.8097  169.3516 N.3     1  UNL1       -0.2678
     10 C         142.4569  139.3608  169.2821 C.3     1  UNL1        0.0899
     11 C         143.1261  141.8516  169.5958 C.3     1  UNL1        0.0899
     12 O         140.9537  142.4943  166.4805 O.3     1  UNL1       -0.4537
     13 C         142.1742  142.3368  165.6228 C.ar    1  UNL1        0.1462
     14 C         143.0093  141.0951  165.7275 C.ar    1  UNL1        0.0384
     15 C         144.2298  140.9376  164.8698 C.ar    1  UNL1        0.0154
     16 C         144.6152  142.0218  163.9076 C.ar    1  UNL1        0.0684
     17 CL        145.8357  141.8644  163.0500 Cl      1  UNL1       -0.0814
     18 C         143.7802  143.2635  163.8030 C.ar    1  UNL1        0.0712
     19 CL        144.1657  144.3477  162.8407 Cl      1  UNL1       -0.0813
     20 C         142.5597  143.4210  164.6606 C.ar    1  UNL1        0.0497
@<TRIPOS>BOND
     1     7     8    1
     2     8     1    1
     3     1     2   ar
     4     2     3   ar
     5     3     4   ar
     6     4     5   ar
     7     5     6   ar
     8     6    12    1
     9    12    13    1
    10    13    14   ar
    11    14    15   ar
    12    15    16   ar
    13    16    17    1
    14    16    18   ar
    15    18    19    1
    16    18    20   ar
    17     8     9    1
    18     9    10    1
    19     9    11    1
    20     6     1   ar
    21    20    13   ar
