@<TRIPOS>MOLECULE
*****
 31 33 0 0 0
SMALL
GASTEIGER

@<TRIPOS>ATOM
      1 N         140.5838  142.8393  167.6786 N.am    1  UNL1       -0.2753
      2 C         141.2992  142.4468  166.4200 C.2     1  UNL1        0.2498
      3 O         142.2873  141.3184  166.4396 O.2     1  UNL1       -0.2698
      4 H         139.9354  143.5799  167.6657 H       1  UNL1        0.1556
      5 C         141.0266  143.1828  165.1417 C.ar    1  UNL1        0.0537
      6 C         142.1051  144.0109  164.5084 C.ar    1  UNL1        0.0047
      7 C         141.8324  144.7469  163.2301 C.ar    1  UNL1        0.0047
      8 C         140.4813  144.6547  162.5852 C.ar    1  UNL1        0.0536
      9 C         139.4028  143.8266  163.2185 C.ar    1  UNL1        0.0047
     10 C         139.6755  143.0907  164.4967 C.ar    1  UNL1        0.0047
     11 C         140.2087  145.3908  161.3068 C.2     1  UNL1        0.2490
     12 O         139.2012  146.5018  161.2813 O.2     1  UNL1       -0.2699
     13 N         140.9435  145.0157  160.0541 N.am    1  UNL1       -0.2761
     14 C         141.9510  143.9047  160.0796 C.3     1  UNL1        0.0937
     15 C         142.6858  143.5298  158.8268 C.3     1  UNL1        0.0216
     16 C         142.4132  144.2658  157.5486 C.3     1  UNL1        0.0035
     17 C         141.4057  145.3768  157.5231 C.3     1  UNL1        0.0216
     18 C         140.6709  145.7518  158.7758 C.3     1  UNL1        0.0937
     19 C         140.2507  140.7936  169.3667 C.ar    1  UNL1        0.0740
     20 C         140.8026  140.4287  170.7129 C.ar    1  UNL1        0.0133
     21 C         141.7495  141.5128  171.1351 C.ar    1  UNL1        0.0368
     22 S         141.7828  142.5478  170.0498 S.2     1  UNL1       -0.0715
     23 C         140.8565  142.1032  168.9569 C.ar    1  UNL1        0.0853
     24 C         138.5226  138.9375  166.3141 C.2     1  UNL1        0.4078
     25 O         137.2965  138.3830  166.9768 O.2     1  UNL1       -0.2260
     26 N         139.5073  139.7411  167.1107 N.am    1  UNL1       -0.2174
     27 C         139.2660  139.9901  168.5701 C.2     1  UNL1        0.2557
     28 O         138.0399  139.4356  169.2328 O.2     1  UNL1       -0.2696
     29 H         140.3120  140.1050  166.6758 H       1  UNL1        0.1612
     30 C         139.8833  139.3946  164.1486 C.3     1  UNL1        0.2574
     31 O         138.7640  138.6885  164.8547 O.3     1  UNL1       -0.4303
@<TRIPOS>BOND
     1    30    31    1
     2    31    24    1
     3    24    25    2
     4    24    26   am
     5    26    27   am
     6    27    28    2
     7    27    19    1
     8    19    20   ar
     9    20    21   ar
    10    21    22   ar
    11    22    23   ar
    12    23     1    1
    13     1     2   am
    14     2     3    2
    15     2     5    1
    16     5     6   ar
    17     6     7   ar
    18     7     8   ar
    19     8    11    1
    20    11    12    2
    21    11    13   am
    22    13    14    1
    23    14    15    1
    24    15    16    1
    25    16    17    1
    26    17    18    1
    27     8     9   ar
    28     9    10   ar
    29    23    19   ar
    30    10     5   ar
    31    18    13    1
    32    26    29    1
    33     1     4    1
@<TRIPOS>MOLECULE
*****
 31 33 0 0 0
SMALL
GASTEIGER

@<TRIPOS>ATOM
      1 N         141.7613  140.9705  167.5763 N.am    1  UNL1       -0.2753
      2 C         142.5322  139.7296  167.2360 C.2     1  UNL1        0.2498
      3 O         143.1505  138.9078  168.3279 O.2     1  UNL1       -0.2698
      4 H         141.3554  141.5099  166.8596 H       1  UNL1        0.1556
      5 C         142.6847  139.3105  165.8038 C.ar    1  UNL1        0.0537
      6 C         143.7604  139.9200  164.9545 C.ar    1  UNL1        0.0047
      7 C         143.9129  139.5008  163.5224 C.ar    1  UNL1        0.0047
      8 C         142.9898  138.4721  162.9396 C.ar    1  UNL1        0.0536
      9 C         141.9141  137.8626  163.7890 C.ar    1  UNL1        0.0047
     10 C         141.7616  138.2818  165.2211 C.ar    1  UNL1        0.0047
     11 C         143.1423  138.0529  161.5074 C.2     1  UNL1        0.2490
     12 O         144.3448  137.2641  161.0809 O.2     1  UNL1       -0.2699
     13 N         142.0925  138.4225  160.5019 N.am    1  UNL1       -0.2761
     14 C         140.8901  139.2113  160.9284 C.3     1  UNL1        0.0937
     15 C         139.8402  139.5809  159.9228 C.3     1  UNL1        0.0216
     16 C         139.9928  139.1618  158.4907 C.3     1  UNL1        0.0035
     17 C         141.1952  138.3730  158.0642 C.3     1  UNL1        0.0216
     18 C         142.2451  138.0034  159.0697 C.3     1  UNL1        0.0937
     19 C         140.4745  141.0222  169.9187 C.ar    1  UNL1        0.0740
     20 C         140.7284  141.6553  171.2546 C.ar    1  UNL1        0.0133
     21 C         142.0196  142.4142  171.1700 C.ar    1  UNL1        0.0368
     22 S         142.5636  142.2501  169.7817 S.2     1  UNL1       -0.0715
     23 C         141.6087  141.3897  169.0084 C.ar    1  UNL1        0.0853
     24 C         137.0731  139.0010  170.2275 C.2     1  UNL1        0.4078
     25 O         136.9322  138.4684  168.8324 O.2     1  UNL1       -0.2260
     26 N         138.2539  139.8522  170.5896 N.am    1  UNL1       -0.2174
     27 C         139.2938  140.1709  169.5565 C.2     1  UNL1        0.2557
     28 O         139.1528  139.6383  168.1614 O.2     1  UNL1       -0.2696
     29 H         138.3464  140.2018  171.5053 H       1  UNL1        0.1612
     30 C         136.1742  137.4561  172.1130 C.3     1  UNL1        0.2574
     31 O         136.0333  138.6823  171.2606 O.3     1  UNL1       -0.4303
@<TRIPOS>BOND
     1    30    31    1
     2    31    24    1
     3    24    25    2
     4    24    26   am
     5    26    27   am
     6    27    28    2
     7    27    19    1
     8    19    20   ar
     9    20    21   ar
    10    21    22   ar
    11    22    23   ar
    12    23     1    1
    13     1     2   am
    14     2     3    2
    15     2     5    1
    16     5     6   ar
    17     6     7   ar
    18     7     8   ar
    19     8    11    1
    20    11    12    2
    21    11    13   am
    22    13    14    1
    23    14    15    1
    24    15    16    1
    25    16    17    1
    26    17    18    1
    27     8     9   ar
    28     9    10   ar
    29    23    19   ar
    30    10     5   ar
    31    18    13    1
    32    26    29    1
    33     1     4    1
@<TRIPOS>MOLECULE
*****
 31 33 0 0 0
SMALL
GASTEIGER

@<TRIPOS>ATOM
      1 N         142.3852  142.3020  166.2707 N.am    1  UNL1       -0.2753
      2 C         141.0017  142.4981  165.7254 C.2     1  UNL1        0.2498
      3 O         139.8234  141.9030  166.4376 O.2     1  UNL1       -0.2698
      4 H         143.1585  142.6926  165.8032 H       1  UNL1        0.1556
      5 C         140.7964  143.2896  164.4677 C.ar    1  UNL1        0.0537
      6 C         139.6715  142.9424  163.5383 C.ar    1  UNL1        0.0047
      7 C         139.4663  143.7338  162.2807 C.ar    1  UNL1        0.0047
      8 C         140.3861  144.8724  161.9526 C.ar    1  UNL1        0.0536
      9 C         141.5110  145.2196  162.8820 C.ar    1  UNL1        0.0047
     10 C         141.7162  144.4282  164.1396 C.ar    1  UNL1        0.0047
     11 C         140.1808  145.6638  160.6949 C.2     1  UNL1        0.2490
     12 O         139.2623  146.8497  160.6965 O.2     1  UNL1       -0.2699
     13 N         140.8941  145.2693  159.4357 N.am    1  UNL1       -0.2761
     14 C         141.8126  144.0834  159.4341 C.3     1  UNL1        0.0937
     15 C         142.5259  143.6889  158.1748 C.3     1  UNL1        0.0216
     16 C         142.3206  144.4803  156.9173 C.3     1  UNL1        0.0035
     17 C         141.4021  145.6662  156.9189 C.3     1  UNL1        0.0216
     18 C         140.6888  146.0607  158.1781 C.3     1  UNL1        0.0937
     19 C         142.4743  140.0210  167.6616 C.ar    1  UNL1        0.0740
     20 C         142.7599  139.6597  169.0891 C.ar    1  UNL1        0.0133
     21 C         143.0526  140.9259  169.8382 C.ar    1  UNL1        0.0368
     22 S         142.9478  142.0699  168.8735 S.2     1  UNL1       -0.0715
     23 C         142.5904  141.5105  167.5284 C.ar    1  UNL1        0.0853
     24 C         140.4071  138.0868  164.8803 C.2     1  UNL1        0.4078
     25 O         141.4488  137.1421  164.3585 O.2     1  UNL1       -0.2260
     26 N         140.7489  139.0465  165.9813 N.am    1  UNL1       -0.2174
     27 C         142.1325  139.0614  166.5606 C.2     1  UNL1        0.2557
     28 O         143.1742  138.1166  166.0389 O.2     1  UNL1       -0.2696
     29 H         140.0652  139.6665  166.3237 H       1  UNL1        0.1612
     30 C         138.5038  139.2741  163.5697 C.3     1  UNL1        0.2574
     31 O         139.0235  138.0720  164.3010 O.3     1  UNL1       -0.4303
@<TRIPOS>BOND
     1    30    31    1
     2    31    24    1
     3    24    25    2
     4    24    26   am
     5    26    27   am
     6    27    28    2
     7    27    19    1
     8    19    20   ar
     9    20    21   ar
    10    21    22   ar
    11    22    23   ar
    12    23     1    1
    13     1     2   am
    14     2     3    2
    15     2     5    1
    16     5     6   ar
    17     6     7   ar
    18     7     8   ar
    19     8    11    1
    20    11    12    2
    21    11    13   am
    22    13    14    1
    23    14    15    1
    24    15    16    1
    25    16    17    1
    26    17    18    1
    27     8     9   ar
    28     9    10   ar
    29    23    19   ar
    30    10     5   ar
    31    18    13    1
    32    26    29    1
    33     1     4    1
@<TRIPOS>MOLECULE
*****
 31 33 0 0 0
SMALL
GASTEIGER

@<TRIPOS>ATOM
      1 N         136.5997  141.9246  156.8414 N.am    1  UNL1       -0.2753
      2 C         137.6315  140.9269  157.2773 C.2     1  UNL1        0.2498
      3 O         137.9887  139.7775  156.3820 O.2     1  UNL1       -0.2698
      4 H         136.3653  142.6789  157.4290 H       1  UNL1        0.1556
      5 C         138.3062  141.0785  158.6084 C.ar    1  UNL1        0.0537
      6 C         139.4115  142.0779  158.7795 C.ar    1  UNL1        0.0047
      7 C         140.0861  142.2295  160.1106 C.ar    1  UNL1        0.0047
      8 C         139.6554  141.3816  161.2706 C.ar    1  UNL1        0.0536
      9 C         138.5501  140.3821  161.0995 C.ar    1  UNL1        0.0047
     10 C         137.8755  140.2306  159.7684 C.ar    1  UNL1        0.0047
     11 C         140.3301  141.5332  162.6018 C.2     1  UNL1        0.2490
     12 O         141.5196  140.6845  162.9407 O.2     1  UNL1       -0.2699
     13 N         139.8153  142.5334  163.5940 N.am    1  UNL1       -0.2761
     14 C         138.6257  143.3820  163.2551 C.3     1  UNL1        0.0937
     15 C         138.1109  144.3823  164.2474 C.3     1  UNL1        0.0216
     16 C         138.7856  144.5338  165.5784 C.3     1  UNL1        0.0035
     17 C         139.9751  143.6852  165.9173 C.3     1  UNL1        0.0216
     18 C         140.4899  142.6850  164.9251 C.3     1  UNL1        0.0937
     19 C         134.7227  140.9234  155.2229 C.ar    1  UNL1        0.0740
     20 C         134.3889  141.0697  153.7678 C.ar    1  UNL1        0.0133
     21 C         135.3849  142.0098  153.1559 C.ar    1  UNL1        0.0368
     22 S         136.3344  142.4444  154.2329 S.2     1  UNL1       -0.0715
     23 C         135.9251  141.7730  155.5103 C.ar    1  UNL1        0.0853
     24 C         131.9270  138.6164  156.8390 C.2     1  UNL1        0.4078
     25 O         132.5063  138.3820  158.2026 O.2     1  UNL1       -0.2260
     26 N         132.6659  139.4635  155.8458 N.am    1  UNL1       -0.2174
     27 C         133.9840  140.0763  156.2161 C.2     1  UNL1        0.2557
     28 O         134.5632  139.8420  157.5798 O.2     1  UNL1       -0.2696
     29 H         132.2857  139.6173  154.9508 H       1  UNL1        0.1612
     30 C         129.4312  138.8827  156.1685 C.3     1  UNL1        0.2574
     31 O         130.6090  138.0036  156.4685 O.3     1  UNL1       -0.4303
@<TRIPOS>BOND
     1    30    31    1
     2    31    24    1
     3    24    25    2
     4    24    26   am
     5    26    27   am
     6    27    28    2
     7    27    19    1
     8    19    20   ar
     9    20    21   ar
    10    21    22   ar
    11    22    23   ar
    12    23     1    1
    13     1     2   am
    14     2     3    2
    15     2     5    1
    16     5     6   ar
    17     6     7   ar
    18     7     8   ar
    19     8    11    1
    20    11    12    2
    21    11    13   am
    22    13    14    1
    23    14    15    1
    24    15    16    1
    25    16    17    1
    26    17    18    1
    27     8     9   ar
    28     9    10   ar
    29    23    19   ar
    30    10     5   ar
    31    18    13    1
    32    26    29    1
    33     1     4    1
@<TRIPOS>MOLECULE
*****
 31 33 0 0 0
SMALL
GASTEIGER

@<TRIPOS>ATOM
      1 N         142.3718  137.6342  159.2204 N.am    1  UNL1       -0.2753
      2 C         143.2570  138.6185  159.9256 C.2     1  UNL1        0.2498
      3 O         144.1200  139.5541  159.1318 O.2     1  UNL1       -0.2698
      4 H         141.8055  137.0201  159.7414 H       1  UNL1        0.1556
      5 C         143.2794  138.6674  161.4247 C.ar    1  UNL1        0.0537
      6 C         144.3362  139.4614  162.1335 C.ar    1  UNL1        0.0047
      7 C         144.3585  139.5103  163.6325 C.ar    1  UNL1        0.0047
      8 C         143.3239  138.7652  164.4227 C.ar    1  UNL1        0.0536
      9 C         142.2670  137.9712  163.7138 C.ar    1  UNL1        0.0047
     10 C         142.2447  137.9223  162.2148 C.ar    1  UNL1        0.0047
     11 C         143.3462  138.8141  165.9218 C.2     1  UNL1        0.2490
     12 O         144.1859  137.8382  166.6916 O.2     1  UNL1       -0.2699
     13 N         142.5288  139.8388  166.6510 N.am    1  UNL1       -0.2761
     14 C         141.6891  140.8147  165.8812 C.3     1  UNL1        0.0937
     15 C         140.8717  141.8394  166.6105 C.3     1  UNL1        0.0216
     16 C         140.8941  141.8883  168.1095 C.3     1  UNL1        0.0035
     17 C         141.7338  140.9124  168.8793 C.3     1  UNL1        0.0216
     18 C         142.5512  139.8877  168.1501 C.3     1  UNL1        0.0937
     19 C         142.8538  136.4592  156.8683 C.ar    1  UNL1        0.0740
     20 C         142.6349  136.8318  155.4319 C.ar    1  UNL1        0.0133
     21 C         141.9954  138.1883  155.3972 C.ar    1  UNL1        0.0368
     22 S         141.8190  138.6539  156.8122 S.2     1  UNL1       -0.0715
     23 C         142.3495  137.5852  157.7213 C.ar    1  UNL1        0.0853
     24 C         144.6537  132.9222  156.8855 C.2     1  UNL1        0.4078
     25 O         144.6992  132.6345  158.3570 O.2     1  UNL1       -0.2260
     26 N         144.0385  134.1971  156.3894 N.am    1  UNL1       -0.2174
     27 C         143.4689  135.1843  157.3645 C.2     1  UNL1        0.2557
     28 O         143.5144  134.8966  158.8360 O.2     1  UNL1       -0.2696
     29 H         144.0087  134.3860  155.4236 H       1  UNL1        0.1612
     30 C         144.6967  130.5311  155.8704 C.3     1  UNL1        0.2574
     31 O         145.2233  131.9351  155.9103 O.3     1  UNL1       -0.4303
@<TRIPOS>BOND
     1    30    31    1
     2    31    24    1
     3    24    25    2
     4    24    26   am
     5    26    27   am
     6    27    28    2
     7    27    19    1
     8    19    20   ar
     9    20    21   ar
    10    21    22   ar
    11    22    23   ar
    12    23     1    1
    13     1     2   am
    14     2     3    2
    15     2     5    1
    16     5     6   ar
    17     6     7   ar
    18     7     8   ar
    19     8    11    1
    20    11    12    2
    21    11    13   am
    22    13    14    1
    23    14    15    1
    24    15    16    1
    25    16    17    1
    26    17    18    1
    27     8     9   ar
    28     9    10   ar
    29    23    19   ar
    30    10     5   ar
    31    18    13    1
    32    26    29    1
    33     1     4    1
@<TRIPOS>MOLECULE
*****
 31 33 0 0 0
SMALL
GASTEIGER

@<TRIPOS>ATOM
      1 N         136.7733  143.1159  155.9244 N.am    1  UNL1       -0.2753
      2 C         138.1640  142.6968  156.2991 C.2     1  UNL1        0.2498
      3 O         138.9200  141.7401  155.4255 O.2     1  UNL1       -0.2698
      4 H         136.2771  143.7438  156.4978 H       1  UNL1        0.1556
      5 C         138.7986  143.2343  157.5475 C.ar    1  UNL1        0.0537
      6 C         139.7122  144.4217  157.4730 C.ar    1  UNL1        0.0047
      7 C         140.3467  144.9591  158.7214 C.ar    1  UNL1        0.0047
      8 C         140.0677  144.3093  160.0442 C.ar    1  UNL1        0.0536
      9 C         139.1542  143.1219  160.1187 C.ar    1  UNL1        0.0047
     10 C         138.5196  142.5844  158.8703 C.ar    1  UNL1        0.0047
     11 C         140.7024  144.8468  161.2926 C.2     1  UNL1        0.2490
     12 O         140.0107  145.9163  162.0849 O.2     1  UNL1       -0.2699
     13 N         142.0286  144.3148  161.7486 N.am    1  UNL1       -0.2761
     14 C         142.7203  143.2453  160.9563 C.3     1  UNL1        0.0937
     15 C         144.0467  142.7134  161.4124 C.3     1  UNL1        0.0216
     16 C         144.6812  143.2509  162.6607 C.3     1  UNL1        0.0035
     17 C         143.9895  144.3204  163.4530 C.3     1  UNL1        0.0216
     18 C         142.6633  144.8524  162.9970 C.3     1  UNL1        0.0937
     19 C         135.1986  141.4122  154.5966 C.ar    1  UNL1        0.0740
     20 C         134.8117  141.2258  153.1594 C.ar    1  UNL1        0.0133
     21 C         135.5127  142.2767  152.3506 C.ar    1  UNL1        0.0368
     22 S         136.3329  143.1127  153.2879 S.2     1  UNL1       -0.0715
     23 C         136.1387  142.5783  154.6760 C.ar    1  UNL1        0.0853
     24 C         132.9198  139.0693  156.8478 C.2     1  UNL1        0.4078
     25 O         133.7867  138.9122  158.0617 O.2     1  UNL1       -0.2260
     26 N         133.3904  139.9026  155.6928 N.am    1  UNL1       -0.2174
     27 C         134.7280  140.5789  155.7516 C.2     1  UNL1        0.2557
     28 O         135.5950  140.4218  156.9656 O.2     1  UNL1       -0.2696
     29 H         132.8214  140.0057  154.8960 H       1  UNL1        0.1612
     30 C         130.6305  138.5115  157.9422 C.3     1  UNL1        0.2574
     31 O         131.5821  138.3931  156.7888 O.3     1  UNL1       -0.4303
@<TRIPOS>BOND
     1    30    31    1
     2    31    24    1
     3    24    25    2
     4    24    26   am
     5    26    27   am
     6    27    28    2
     7    27    19    1
     8    19    20   ar
     9    20    21   ar
    10    21    22   ar
    11    22    23   ar
    12    23     1    1
    13     1     2   am
    14     2     3    2
    15     2     5    1
    16     5     6   ar
    17     6     7   ar
    18     7     8   ar
    19     8    11    1
    20    11    12    2
    21    11    13   am
    22    13    14    1
    23    14    15    1
    24    15    16    1
    25    16    17    1
    26    17    18    1
    27     8     9   ar
    28     9    10   ar
    29    23    19   ar
    30    10     5   ar
    31    18    13    1
    32    26    29    1
    33     1     4    1
@<TRIPOS>MOLECULE
*****
 31 33 0 0 0
SMALL
GASTEIGER

@<TRIPOS>ATOM
      1 N         139.8537  140.7107  167.5668 N.am    1  UNL1       -0.2753
      2 C         140.4027  141.5023  166.4171 C.2     1  UNL1        0.2498
      3 O         141.5221  142.4749  166.6429 O.2     1  UNL1       -0.2698
      4 H         139.1190  140.0723  167.4186 H       1  UNL1        0.1556
      5 C         139.8323  141.3214  165.0416 C.ar    1  UNL1        0.0537
      6 C         138.4283  141.7601  164.7482 C.ar    1  UNL1        0.0047
      7 C         137.8580  141.5791  163.3728 C.ar    1  UNL1        0.0047
      8 C         138.6917  140.9595  162.2907 C.ar    1  UNL1        0.0536
      9 C         140.0958  140.5208  162.5841 C.ar    1  UNL1        0.0047
     10 C         140.6661  140.7017  163.9595 C.ar    1  UNL1        0.0047
     11 C         138.1213  140.7785  160.9151 C.2     1  UNL1        0.2490
     12 O         137.1591  139.6604  160.6434 O.2     1  UNL1       -0.2699
     13 N         138.5132  141.7157  159.8115 N.am    1  UNL1       -0.2761
     14 C         139.4754  142.8338  160.0833 C.3     1  UNL1        0.0937
     15 C         139.8672  143.7710  158.9795 C.3     1  UNL1        0.0216
     16 C         139.2968  143.5901  157.6041 C.3     1  UNL1        0.0035
     17 C         138.3346  142.4719  157.3323 C.3     1  UNL1        0.0216
     18 C         137.9428  141.5347  158.4360 C.3     1  UNL1        0.0937
     19 C         141.6636  140.2369  169.4760 C.ar    1  UNL1        0.0740
     20 C         141.8607  140.6997  170.8891 C.ar    1  UNL1        0.0133
     21 C         140.7429  141.6406  171.2289 C.ar    1  UNL1        0.0368
     22 S         139.8550  141.7592  170.0256 S.2     1  UNL1       -0.0715
     23 C         140.4241  140.8916  168.9423 C.ar    1  UNL1        0.0853
     24 C         143.6397  138.5033  166.5027 C.2     1  UNL1        0.4078
     25 O         144.3240  137.3848  167.2313 O.2     1  UNL1       -0.2260
     26 N         142.7529  139.4539  167.2510 N.am    1  UNL1       -0.2174
     27 C         142.5504  139.2862  168.7278 C.2     1  UNL1        0.2557
     28 O         143.2347  138.1677  169.4563 O.2     1  UNL1       -0.2696
     29 H         142.3038  140.1880  166.7728 H       1  UNL1        0.1612
     30 C         144.7709  139.7309  164.5120 C.3     1  UNL1        0.2574
     31 O         143.8421  138.6711  165.0260 O.3     1  UNL1       -0.4303
@<TRIPOS>BOND
     1    30    31    1
     2    31    24    1
     3    24    25    2
     4    24    26   am
     5    26    27   am
     6    27    28    2
     7    27    19    1
     8    19    20   ar
     9    20    21   ar
    10    21    22   ar
    11    22    23   ar
    12    23     1    1
    13     1     2   am
    14     2     3    2
    15     2     5    1
    16     5     6   ar
    17     6     7   ar
    18     7     8   ar
    19     8    11    1
    20    11    12    2
    21    11    13   am
    22    13    14    1
    23    14    15    1
    24    15    16    1
    25    16    17    1
    26    17    18    1
    27     8     9   ar
    28     9    10   ar
    29    23    19   ar
    30    10     5   ar
    31    18    13    1
    32    26    29    1
    33     1     4    1
@<TRIPOS>MOLECULE
*****
 31 33 0 0 0
SMALL
GASTEIGER

@<TRIPOS>ATOM
      1 N         140.2597  139.2162  160.3339 N.am    1  UNL1       -0.2753
      2 C         139.0541  139.7825  161.0235 C.2     1  UNL1        0.2498
      3 O         137.9859  140.4682  160.2243 O.2     1  UNL1       -0.2698
      4 H         140.9608  138.7662  160.8584 H       1  UNL1        0.1556
      5 C         138.9166  139.6631  162.5125 C.ar    1  UNL1        0.0537
      6 C         138.1583  140.7040  163.2815 C.ar    1  UNL1        0.0047
      7 C         138.0209  140.5845  164.7704 C.ar    1  UNL1        0.0047
      8 C         138.6417  139.4242  165.4902 C.ar    1  UNL1        0.0536
      9 C         139.4000  138.3833  164.7212 C.ar    1  UNL1        0.0047
     10 C         139.5375  138.5027  163.2323 C.ar    1  UNL1        0.0047
     11 C         138.5043  139.3048  166.9792 C.2     1  UNL1        0.2490
     12 O         137.5897  138.2716  167.5675 O.2     1  UNL1       -0.2699
     13 N         139.2813  140.2185  167.8798 N.am    1  UNL1       -0.2761
     14 C         140.1959  141.2517  167.2916 C.3     1  UNL1        0.0937
     15 C         140.9731  142.1655  168.1923 C.3     1  UNL1        0.0216
     16 C         140.8355  142.0460  169.6811 C.3     1  UNL1        0.0035
     17 C         139.9210  141.0128  170.2694 C.3     1  UNL1        0.0216
     18 C         139.1439  140.0991  169.3688 C.3     1  UNL1        0.0937
     19 C         140.8482  140.5546  158.0960 C.ar    1  UNL1        0.0740
     20 C         140.8375  140.2293  156.6318 C.ar    1  UNL1        0.0133
     21 C         140.3799  138.8093  156.4756 C.ar    1  UNL1        0.0368
     22 S         140.1078  138.2570  157.8435 S.2     1  UNL1       -0.0715
     23 C         140.3972  139.3356  158.8449 C.ar    1  UNL1        0.0853
     24 C         140.5918  144.0570  159.9447 C.2     1  UNL1        0.4078
     25 O         142.0261  144.4952  159.9219 O.2     1  UNL1       -0.2260
     26 N         140.1992  142.7434  159.3361 N.am    1  UNL1       -0.2174
     27 C         141.2409  141.8681  158.7046 C.2     1  UNL1        0.2557
     28 O         142.6752  142.3063  158.6818 O.2     1  UNL1       -0.2696
     29 H         139.2578  142.4558  159.3510 H       1  UNL1        0.1612
     30 C         139.9562  145.9983  161.5499 C.3     1  UNL1        0.2574
     31 O         139.5500  144.9322  160.5761 O.3     1  UNL1       -0.4303
@<TRIPOS>BOND
     1    30    31    1
     2    31    24    1
     3    24    25    2
     4    24    26   am
     5    26    27   am
     6    27    28    2
     7    27    19    1
     8    19    20   ar
     9    20    21   ar
    10    21    22   ar
    11    22    23   ar
    12    23     1    1
    13     1     2   am
    14     2     3    2
    15     2     5    1
    16     5     6   ar
    17     6     7   ar
    18     7     8   ar
    19     8    11    1
    20    11    12    2
    21    11    13   am
    22    13    14    1
    23    14    15    1
    24    15    16    1
    25    16    17    1
    26    17    18    1
    27     8     9   ar
    28     9    10   ar
    29    23    19   ar
    30    10     5   ar
    31    18    13    1
    32    26    29    1
    33     1     4    1
@<TRIPOS>MOLECULE
*****
 31 33 0 0 0
SMALL
GASTEIGER

@<TRIPOS>ATOM
      1 N         137.6710  140.0289  156.8512 N.am    1  UNL1       -0.2753
      2 C         138.0034  140.9019  158.0248 C.2     1  UNL1        0.2498
      3 O         137.9019  142.3935  157.9025 O.2     1  UNL1       -0.2698
      4 H         137.7376  139.0499  156.9315 H       1  UNL1        0.1556
      5 C         138.4374  140.2834  159.3206 C.ar    1  UNL1        0.0537
      6 C         139.1947  138.9886  159.3172 C.ar    1  UNL1        0.0047
      7 C         139.6286  138.3702  160.6130 C.ar    1  UNL1        0.0047
      8 C         139.3053  139.0465  161.9122 C.ar    1  UNL1        0.0536
      9 C         138.5480  140.3413  161.9157 C.ar    1  UNL1        0.0047
     10 C         138.1141  140.9597  160.6199 C.ar    1  UNL1        0.0047
     11 C         139.7393  138.4280  163.2081 C.2     1  UNL1        0.2490
     12 O         138.7947  137.5492  163.9732 O.2     1  UNL1       -0.2699
     13 N         141.1179  138.6884  163.7388 N.am    1  UNL1       -0.2761
     14 C         142.0625  139.5672  162.9738 C.3     1  UNL1        0.0937
     15 C         143.4411  139.8275  163.5046 C.3     1  UNL1        0.0216
     16 C         143.8751  139.2090  164.8004 C.3     1  UNL1        0.0035
     17 C         142.9304  138.3302  165.5654 C.3     1  UNL1        0.0216
     18 C         141.5519  138.0699  165.0347 C.3     1  UNL1        0.0937
     19 C         135.8221  140.9204  155.1389 C.ar    1  UNL1        0.0740
     20 C         135.8524  141.5432  153.7747 C.ar    1  UNL1        0.0133
     21 C         137.2861  141.6551  153.3479 C.ar    1  UNL1        0.0368
     22 S         138.1418  141.1014  154.4485 S.2     1  UNL1       -0.0715
     23 C         137.2370  140.6474  155.5554 C.ar    1  UNL1        0.0853
     24 C         132.0130  140.7264  156.2359 C.2     1  UNL1        0.4078
     25 O         132.1338  140.0279  157.5578 O.2     1  UNL1       -0.2260
     26 N         133.2424  141.0239  155.4296 N.am    1  UNL1       -0.2174
     27 C         134.5927  140.6229  155.9452 C.2     1  UNL1        0.2557
     28 O         134.7136  139.9243  157.2671 O.2     1  UNL1       -0.2696
     29 H         133.1630  141.4824  154.5620 H       1  UNL1        0.1612
     30 C         129.4401  140.3748  156.1547 C.3     1  UNL1        0.2574
     31 O         130.6627  141.1275  155.7202 O.3     1  UNL1       -0.4303
@<TRIPOS>BOND
     1    30    31    1
     2    31    24    1
     3    24    25    2
     4    24    26   am
     5    26    27   am
     6    27    28    2
     7    27    19    1
     8    19    20   ar
     9    20    21   ar
    10    21    22   ar
    11    22    23   ar
    12    23     1    1
    13     1     2   am
    14     2     3    2
    15     2     5    1
    16     5     6   ar
    17     6     7   ar
    18     7     8   ar
    19     8    11    1
    20    11    12    2
    21    11    13   am
    22    13    14    1
    23    14    15    1
    24    15    16    1
    25    16    17    1
    26    17    18    1
    27     8     9   ar
    28     9    10   ar
    29    23    19   ar
    30    10     5   ar
    31    18    13    1
    32    26    29    1
    33     1     4    1
