@<TRIPOS>MOLECULE
*****
 33 37 0 0 0
SMALL
GASTEIGER

@<TRIPOS>ATOM
      1 C         140.2111  142.4494  170.5204 C.3     1  UNL1        0.0473
      2 C         139.5290  141.2642  169.9039 C.3     1  UNL1        0.0037
      3 C         138.7041  140.0198  170.0483 C.3     1  UNL1        0.0001
      4 C         139.1725  140.4558  168.6917 C.3     1  UNL1        0.0002
      5 C         139.2371  140.2409  167.2086 C.3     1  UNL1        0.0034
      6 C         139.5821  141.3830  166.2996 C.3     1  UNL1        0.0216
      7 C         139.6467  141.1681  164.8165 C.3     1  UNL1        0.0936
      8 N         139.3662  139.8110  164.2424 N.pl3   1  UNL1       -0.2782
      9 C         139.0211  138.6689  165.1514 C.3     1  UNL1        0.0936
     10 C         138.9566  138.8838  166.6345 C.3     1  UNL1        0.0216
     11 C         139.4308  139.5961  162.7593 C.ar    1  UNL1        0.2202
     12 N         138.9275  138.3143  162.1646 N.ar    1  UNL1       -0.2112
     13 C         138.9920  138.0993  160.6815 C.ar    1  UNL1        0.1147
     14 C         139.5599  139.1662  159.7930 C.ar    1  UNL1        0.0960
     15 CL        139.6245  138.9512  158.3099 Cl      1  UNL1       -0.0790
     16 C         140.0632  140.4479  160.3877 C.ar    1  UNL1        0.1147
     17 N         139.9986  140.6629  161.8708 N.ar    1  UNL1       -0.2112
     18 C         141.2439  143.2092  169.7418 C.3     1  UNL1        0.2055
     19 O         142.5846  142.5925  169.4733 O.3     1  UNL1       -0.4732
     20 C         143.0884  139.6997  166.0634 C.ar    1  UNL1       -0.0106
     21 C         143.1773  141.1760  165.8138 C.ar    1  UNL1       -0.0005
     22 C         143.0094  142.1403  166.9504 C.ar    1  UNL1        0.0389
     23 C         142.7526  141.6282  168.3367 C.ar    1  UNL1        0.1658
     24 C         142.6637  140.1518  168.5863 C.ar    1  UNL1        0.1735
     25 F         142.4069  139.6397  169.9726 F       1  UNL1       -0.2010
     26 C         142.8316  139.1876  167.4497 C.ar    1  UNL1        0.0290
     27 C         143.2564  138.7353  164.9268 C.3     1  UNL1        0.1116
     28 O         145.3091  139.9531  163.9005 O.2     1  UNL1       -0.2745
     29 C         144.0718  139.1226  163.7289 C.2     1  UNL1        0.2301
     30 N         143.6500  138.6795  162.3593 N.am    1  UNL1       -0.2791
     31 C         144.1897  138.8633  160.9719 C.3     1  UNL1        0.0952
     32 C         143.0534  138.0528  160.4224 C.3     1  UNL1        0.0430
     33 C         142.5137  137.8690  161.8099 C.3     1  UNL1        0.0952
@<TRIPOS>BOND
     1    28    29    2
     2    29    27    1
     3    27    20    1
     4    20    21   ar
     5    21    22   ar
     6    22    23   ar
     7    23    19    1
     8    19    18    1
     9    18     1    1
    10     2     1    1
    11     2     3    1
    12     3     4    1
    13     4     5    1
    14     5     6    1
    15     6     7    1
    16     7     8    1
    17     8    11    1
    18    11    12   ar
    19    12    13   ar
    20    13    14   ar
    21    14    15    1
    22    14    16   ar
    23    16    17   ar
    24     8     9    1
    25     9    10    1
    26    23    24   ar
    27    24    25    1
    28    24    26   ar
    29    29    30   am
    30    30    31    1
    31    31    32    1
    32    32    33    1
    33    26    20   ar
    34    33    30    1
    35     4     2    1
    36    10     5    1
    37    17    11   ar
@<TRIPOS>MOLECULE
*****
 33 37 0 0 0
SMALL
GASTEIGER

@<TRIPOS>ATOM
      1 C         139.5915  140.1276  168.5972 C.3     1  UNL1        0.0473
      2 C         138.9554  139.7609  167.2893 C.3     1  UNL1        0.0037
      3 C         138.0800  138.8498  166.4807 C.3     1  UNL1        0.0001
      4 C         138.7290  140.0365  165.8323 C.3     1  UNL1        0.0002
      5 C         138.9730  140.8809  164.6168 C.3     1  UNL1        0.0034
      6 C         140.3147  140.8607  163.9466 C.3     1  UNL1        0.0216
      7 C         140.5587  141.7050  162.7310 C.3     1  UNL1        0.0936
      8 N         139.4609  142.5696  162.1857 N.pl3   1  UNL1       -0.2782
      9 C         138.1192  142.5898  162.8559 C.3     1  UNL1        0.0936
     10 C         137.8752  141.7454  164.0715 C.3     1  UNL1        0.0216
     11 C         139.7049  143.4139  160.9701 C.ar    1  UNL1        0.2202
     12 N         140.1770  144.8295  161.1227 N.ar    1  UNL1       -0.2112
     13 C         140.4210  145.6738  159.9071 C.ar    1  UNL1        0.1147
     14 C         140.1929  145.1026  158.5390 C.ar    1  UNL1        0.0960
     15 CL        140.4369  145.9469  157.3235 Cl      1  UNL1       -0.0790
     16 C         139.7209  143.6870  158.3865 C.ar    1  UNL1        0.1147
     17 N         139.4769  142.8427  159.6021 N.ar    1  UNL1       -0.2112
     18 C         141.0849  140.2178  168.7058 C.3     1  UNL1        0.2055
     19 O         141.9536  139.4862  167.7261 O.3     1  UNL1       -0.4732
     20 C         144.3103  141.7824  164.6563 C.ar    1  UNL1       -0.0106
     21 C         143.6380  142.5091  165.7832 C.ar    1  UNL1       -0.0005
     22 C         142.8525  141.7437  166.8064 C.ar    1  UNL1        0.0389
     23 C         142.7392  140.2516  166.7028 C.ar    1  UNL1        0.1658
     24 C         143.4115  139.5249  165.5759 C.ar    1  UNL1        0.1735
     25 F         143.2982  138.0327  165.4722 F       1  UNL1       -0.2010
     26 C         144.1970  140.2903  164.5526 C.ar    1  UNL1        0.0290
     27 C         145.0958  142.5478  163.6330 C.3     1  UNL1        0.1116
     28 O         144.1772  144.7737  162.6577 O.2     1  UNL1       -0.2745
     29 C         144.3830  143.2923  162.5433 C.2     1  UNL1        0.2301
     30 N         143.8760  142.5555  161.3391 N.am    1  UNL1       -0.2791
     31 C         143.1425  142.9431  160.0895 C.3     1  UNL1        0.0952
     32 C         143.1589  141.5134  159.6362 C.3     1  UNL1        0.0430
     33 C         143.8925  141.1257  160.8858 C.3     1  UNL1        0.0952
@<TRIPOS>BOND
     1    28    29    2
     2    29    27    1
     3    27    20    1
     4    20    21   ar
     5    21    22   ar
     6    22    23   ar
     7    23    19    1
     8    19    18    1
     9    18     1    1
    10     2     1    1
    11     2     3    1
    12     3     4    1
    13     4     5    1
    14     5     6    1
    15     6     7    1
    16     7     8    1
    17     8    11    1
    18    11    12   ar
    19    12    13   ar
    20    13    14   ar
    21    14    15    1
    22    14    16   ar
    23    16    17   ar
    24     8     9    1
    25     9    10    1
    26    23    24   ar
    27    24    25    1
    28    24    26   ar
    29    29    30   am
    30    30    31    1
    31    31    32    1
    32    32    33    1
    33    26    20   ar
    34    33    30    1
    35     4     2    1
    36    10     5    1
    37    17    11   ar
@<TRIPOS>MOLECULE
*****
 33 37 0 0 0
SMALL
GASTEIGER

@<TRIPOS>ATOM
      1 C         138.8479  139.5065  167.2619 C.3     1  UNL1        0.0473
      2 C         139.7539  140.6859  167.0671 C.3     1  UNL1        0.0037
      3 C         140.6951  141.7082  167.6320 C.3     1  UNL1        0.0001
      4 C         140.3819  141.7066  166.1651 C.3     1  UNL1        0.0002
      5 C         140.5636  142.2950  164.7973 C.3     1  UNL1        0.0034
      6 C         140.5049  143.7817  164.6066 C.3     1  UNL1        0.0216
      7 C         140.6866  144.3701  163.2388 C.3     1  UNL1        0.0936
      8 N         140.9270  143.4719  162.0618 N.pl3   1  UNL1       -0.2782
      9 C         140.9857  141.9852  162.2526 C.3     1  UNL1        0.0936
     10 C         140.8040  141.3968  163.6203 C.3     1  UNL1        0.0216
     11 C         141.1088  144.0603  160.6941 C.ar    1  UNL1        0.2202
     12 N         142.3704  143.7981  159.9264 N.ar    1  UNL1       -0.2112
     13 C         142.5522  144.3865  158.5586 C.ar    1  UNL1        0.1147
     14 C         141.4722  145.2371  157.9586 C.ar    1  UNL1        0.0960
     15 CL        141.6539  145.8255  156.5908 Cl      1  UNL1       -0.0790
     16 C         140.2105  145.4993  158.7262 C.ar    1  UNL1        0.1147
     17 N         140.0288  144.9109  160.0940 N.ar    1  UNL1       -0.2112
     18 C         138.1680  138.8798  166.0807 C.3     1  UNL1        0.2055
     19 O         138.7665  137.6706  165.4253 O.3     1  UNL1       -0.4732
     20 C         142.3676  138.1053  162.7621 C.ar    1  UNL1       -0.0106
     21 C         142.5257  138.1635  164.2526 C.ar    1  UNL1       -0.0005
     22 C         141.3253  138.0187  165.1403 C.ar    1  UNL1        0.0389
     23 C         139.9669  137.8155  164.5375 C.ar    1  UNL1        0.1658
     24 C         139.8088  137.7572  163.0470 C.ar    1  UNL1        0.1735
     25 F         138.4503  137.5541  162.4442 F       1  UNL1       -0.2010
     26 C         141.0092  137.9021  162.1593 C.ar    1  UNL1        0.0290
     27 C         143.5680  138.2502  161.8743 C.3     1  UNL1        0.1116
     28 O         143.7103  140.0105  159.9688 O.2     1  UNL1       -0.2745
     29 C         143.9817  139.6075  161.3879 C.2     1  UNL1        0.2301
     30 N         144.6668  140.5618  162.3207 N.am    1  UNL1       -0.2791
     31 C         145.2093  141.9552  162.2023 C.3     1  UNL1        0.0952
     32 C         145.6356  141.9113  163.6398 C.3     1  UNL1        0.0430
     33 C         145.0931  140.5179  163.7581 C.3     1  UNL1        0.0952
@<TRIPOS>BOND
     1    28    29    2
     2    29    27    1
     3    27    20    1
     4    20    21   ar
     5    21    22   ar
     6    22    23   ar
     7    23    19    1
     8    19    18    1
     9    18     1    1
    10     2     1    1
    11     2     3    1
    12     3     4    1
    13     4     5    1
    14     5     6    1
    15     6     7    1
    16     7     8    1
    17     8    11    1
    18    11    12   ar
    19    12    13   ar
    20    13    14   ar
    21    14    15    1
    22    14    16   ar
    23    16    17   ar
    24     8     9    1
    25     9    10    1
    26    23    24   ar
    27    24    25    1
    28    24    26   ar
    29    29    30   am
    30    30    31    1
    31    31    32    1
    32    32    33    1
    33    26    20   ar
    34    33    30    1
    35     4     2    1
    36    10     5    1
    37    17    11   ar
@<TRIPOS>MOLECULE
*****
 33 37 0 0 0
SMALL
GASTEIGER

@<TRIPOS>ATOM
      1 C         139.5839  140.3110  168.7059 C.3     1  UNL1        0.0473
      2 C         138.8179  139.4668  167.7310 C.3     1  UNL1        0.0037
      3 C         137.6557  138.5704  167.4218 C.3     1  UNL1        0.0001
      4 C         138.6533  138.9010  166.3516 C.3     1  UNL1        0.0002
      5 C         139.1342  138.7653  164.9373 C.3     1  UNL1        0.0034
      6 C         138.6364  139.7080  163.8821 C.3     1  UNL1        0.0216
      7 C         139.1174  139.5723  162.4678 C.3     1  UNL1        0.0936
      8 N         140.0961  138.4938  162.1086 N.pl3   1  UNL1       -0.2782
      9 C         140.5939  137.5511  163.1638 C.3     1  UNL1        0.0936
     10 C         140.1129  137.6869  164.5781 C.3     1  UNL1        0.0216
     11 C         140.5770  138.3581  160.6943 C.ar    1  UNL1        0.2202
     12 N         142.0319  138.1215  160.4163 N.ar    1  UNL1       -0.2112
     13 C         142.5129  137.9857  159.0020 C.ar    1  UNL1        0.1147
     14 C         141.5389  138.0866  157.8657 C.ar    1  UNL1        0.0960
     15 CL        142.0199  137.9509  156.4514 Cl      1  UNL1       -0.0790
     16 C         140.0841  138.3232  158.1437 C.ar    1  UNL1        0.1147
     17 N         139.6031  138.4590  159.5580 N.ar    1  UNL1       -0.2112
     18 C         141.0156  139.9873  169.0152 C.3     1  UNL1        0.2055
     19 O         141.8844  139.3546  167.9689 O.3     1  UNL1       -0.4732
     20 C         144.0824  141.9342  165.0085 C.ar    1  UNL1       -0.0106
     21 C         143.4280  142.5574  166.2056 C.ar    1  UNL1       -0.0005
     22 C         142.6954  141.6976  167.1924 C.ar    1  UNL1        0.0389
     23 C         142.6171  140.2144  166.9820 C.ar    1  UNL1        0.1658
     24 C         143.2715  139.5912  165.7848 C.ar    1  UNL1        0.1735
     25 F         143.1933  138.1081  165.5744 F       1  UNL1       -0.2010
     26 C         144.0042  140.4511  164.7980 C.ar    1  UNL1        0.0290
     27 C         144.8151  142.7941  164.0216 C.3     1  UNL1        0.1116
     28 O         144.8488  142.5244  161.4378 O.2     1  UNL1       -0.2745
     29 C         144.2104  143.0758  162.6781 C.2     1  UNL1        0.2301
     30 N         142.9673  143.9090  162.5750 N.am    1  UNL1       -0.2791
     31 C         142.1021  144.3880  161.4472 C.3     1  UNL1        0.0952
     32 C         141.2094  145.0873  162.4291 C.3     1  UNL1        0.0430
     33 C         142.0746  144.6082  163.5569 C.3     1  UNL1        0.0952
@<TRIPOS>BOND
     1    28    29    2
     2    29    27    1
     3    27    20    1
     4    20    21   ar
     5    21    22   ar
     6    22    23   ar
     7    23    19    1
     8    19    18    1
     9    18     1    1
    10     2     1    1
    11     2     3    1
    12     3     4    1
    13     4     5    1
    14     5     6    1
    15     6     7    1
    16     7     8    1
    17     8    11    1
    18    11    12   ar
    19    12    13   ar
    20    13    14   ar
    21    14    15    1
    22    14    16   ar
    23    16    17   ar
    24     8     9    1
    25     9    10    1
    26    23    24   ar
    27    24    25    1
    28    24    26   ar
    29    29    30   am
    30    30    31    1
    31    31    32    1
    32    32    33    1
    33    26    20   ar
    34    33    30    1
    35     4     2    1
    36    10     5    1
    37    17    11   ar
@<TRIPOS>MOLECULE
*****
 33 37 0 0 0
SMALL
GASTEIGER

@<TRIPOS>ATOM
      1 C         138.5343  139.0268  165.7734 C.3     1  UNL1        0.0473
      2 C         139.1515  140.3917  165.6960 C.3     1  UNL1        0.0037
      3 C         139.7363  141.5934  166.3770 C.3     1  UNL1        0.0001
      4 C         139.6359  141.5540  164.8810 C.3     1  UNL1        0.0002
      5 C         139.8575  142.2024  163.5466 C.3     1  UNL1        0.0034
      6 C         141.0993  141.8983  162.7620 C.3     1  UNL1        0.0216
      7 C         141.3209  142.5466  161.4277 C.3     1  UNL1        0.0936
      8 N         140.3009  143.4990  160.8779 N.pl3   1  UNL1       -0.2782
      9 C         139.0591  143.8031  161.6624 C.3     1  UNL1        0.0936
     10 C         138.8375  143.1548  162.9968 C.3     1  UNL1        0.0216
     11 C         140.5225  144.1474  159.5435 C.ar    1  UNL1        0.2202
     12 N         141.6615  145.1050  159.3549 N.ar    1  UNL1       -0.2112
     13 C         141.8832  145.7534  158.0206 C.ar    1  UNL1        0.1147
     14 C         140.9659  145.4441  156.8748 C.ar    1  UNL1        0.0960
     15 CL        141.1875  146.0924  155.5404 Cl      1  UNL1       -0.0790
     16 C         139.8269  144.4864  157.0634 C.ar    1  UNL1        0.1147
     17 N         139.6052  143.8381  158.3978 N.ar    1  UNL1       -0.2112
     18 C         139.0318  137.9270  164.8827 C.3     1  UNL1        0.2055
     19 O         140.4158  137.3794  165.0688 O.3     1  UNL1       -0.4732
     20 C         143.9908  139.8661  163.9349 C.ar    1  UNL1       -0.0106
     21 C         143.2925  139.0393  162.8964 C.ar    1  UNL1       -0.0005
     22 C         142.1008  138.2104  163.2743 C.ar    1  UNL1        0.0389
     23 C         141.6075  138.2084  164.6909 C.ar    1  UNL1        0.1658
     24 C         142.3058  139.0352  165.7294 C.ar    1  UNL1        0.1735
     25 F         141.8124  139.0332  167.1460 F       1  UNL1       -0.2010
     26 C         143.4974  139.8641  165.3515 C.ar    1  UNL1        0.0290
     27 C         145.1825  140.6951  163.5570 C.3     1  UNL1        0.1116
     28 O         145.3961  141.9102  161.2706 O.2     1  UNL1       -0.2745
     29 C         145.0044  141.9259  162.7184 C.2     1  UNL1        0.2301
     30 N         144.4346  143.1726  163.3278 N.am    1  UNL1       -0.2791
     31 C         144.1189  144.5501  162.8252 C.3     1  UNL1        0.0952
     32 C         143.6288  144.9356  164.1895 C.3     1  UNL1        0.0430
     33 C         143.9445  143.5580  164.6921 C.3     1  UNL1        0.0952
@<TRIPOS>BOND
     1    28    29    2
     2    29    27    1
     3    27    20    1
     4    20    21   ar
     5    21    22   ar
     6    22    23   ar
     7    23    19    1
     8    19    18    1
     9    18     1    1
    10     2     1    1
    11     2     3    1
    12     3     4    1
    13     4     5    1
    14     5     6    1
    15     6     7    1
    16     7     8    1
    17     8    11    1
    18    11    12   ar
    19    12    13   ar
    20    13    14   ar
    21    14    15    1
    22    14    16   ar
    23    16    17   ar
    24     8     9    1
    25     9    10    1
    26    23    24   ar
    27    24    25    1
    28    24    26   ar
    29    29    30   am
    30    30    31    1
    31    31    32    1
    32    32    33    1
    33    26    20   ar
    34    33    30    1
    35     4     2    1
    36    10     5    1
    37    17    11   ar
@<TRIPOS>MOLECULE
*****
 33 37 0 0 0
SMALL
GASTEIGER

@<TRIPOS>ATOM
      1 C         142.2626  139.5238  168.3125 C.3     1  UNL1        0.0473
      2 C         143.0706  138.8759  167.2274 C.3     1  UNL1        0.0037
      3 C         143.9946  137.7863  166.7703 C.3     1  UNL1        0.0001
      4 C         143.5461  138.8434  165.8052 C.3     1  UNL1        0.0002
      5 C         143.5618  139.4349  164.4268 C.3     1  UNL1        0.0034
      6 C         142.3177  139.4175  163.5891 C.3     1  UNL1        0.0216
      7 C         142.3333  140.0090  162.2107 C.3     1  UNL1        0.0936
      8 N         143.5930  140.6179  161.6701 N.pl3   1  UNL1       -0.2782
      9 C         144.8371  140.6353  162.5079 C.3     1  UNL1        0.0936
     10 C         144.8215  140.0438  163.8863 C.3     1  UNL1        0.0216
     11 C         143.6087  141.2094  160.2918 C.ar    1  UNL1        0.2202
     12 N         143.8928  140.3376  159.1047 N.ar    1  UNL1       -0.2112
     13 C         143.9085  140.9291  157.7263 C.ar    1  UNL1        0.1147
     14 C         143.6400  142.3924  157.5351 C.ar    1  UNL1        0.0960
     15 CL        143.6556  142.9839  156.1567 Cl      1  UNL1       -0.0790
     16 C         143.3558  143.2642  158.7221 C.ar    1  UNL1        0.1147
     17 N         143.3402  142.6727  160.1005 N.ar    1  UNL1       -0.2112
     18 C         142.8991  140.5346  169.2198 C.3     1  UNL1        0.2055
     19 O         142.9005  141.9861  168.8417 O.3     1  UNL1       -0.4732
     20 C         141.9695  143.2106  164.6128 C.ar    1  UNL1       -0.0106
     21 C         143.3953  143.0597  165.0532 C.ar    1  UNL1       -0.0005
     22 C         143.7057  142.6516  166.4629 C.ar    1  UNL1        0.0389
     23 C         142.5901  142.3943  167.4321 C.ar    1  UNL1        0.1658
     24 C         141.1642  142.5452  166.9916 C.ar    1  UNL1        0.1735
     25 F         140.0487  142.2879  167.9608 F       1  UNL1       -0.2010
     26 C         140.8539  142.9533  165.5820 C.ar    1  UNL1        0.0290
     27 C         141.6590  143.6188  163.2032 C.3     1  UNL1        0.1116
     28 O         139.9451  145.5044  162.6963 O.2     1  UNL1       -0.2745
     29 C         140.2693  144.0464  162.8349 C.2     1  UNL1        0.2301
     30 N         139.2036  143.0160  162.6053 N.am    1  UNL1       -0.2791
     31 C         137.7504  143.0572  162.2360 C.3     1  UNL1        0.0952
     32 C         137.6966  141.5588  162.2806 C.3     1  UNL1        0.0430
     33 C         139.1498  141.5176  162.6499 C.3     1  UNL1        0.0952
@<TRIPOS>BOND
     1    28    29    2
     2    29    27    1
     3    27    20    1
     4    20    21   ar
     5    21    22   ar
     6    22    23   ar
     7    23    19    1
     8    19    18    1
     9    18     1    1
    10     2     1    1
    11     2     3    1
    12     3     4    1
    13     4     5    1
    14     5     6    1
    15     6     7    1
    16     7     8    1
    17     8    11    1
    18    11    12   ar
    19    12    13   ar
    20    13    14   ar
    21    14    15    1
    22    14    16   ar
    23    16    17   ar
    24     8     9    1
    25     9    10    1
    26    23    24   ar
    27    24    25    1
    28    24    26   ar
    29    29    30   am
    30    30    31    1
    31    31    32    1
    32    32    33    1
    33    26    20   ar
    34    33    30    1
    35     4     2    1
    36    10     5    1
    37    17    11   ar
@<TRIPOS>MOLECULE
*****
 33 37 0 0 0
SMALL
GASTEIGER

@<TRIPOS>ATOM
      1 C         139.5065  140.3016  168.5681 C.3     1  UNL1        0.0473
      2 C         138.6503  139.4841  167.6470 C.3     1  UNL1        0.0037
      3 C         137.5313  138.5071  167.4389 C.3     1  UNL1        0.0001
      4 C         138.2861  139.0453  166.2596 C.3     1  UNL1        0.0002
      5 C         138.5116  139.1026  164.7778 C.3     1  UNL1        0.0034
      6 C         138.3499  140.4009  164.0442 C.3     1  UNL1        0.0216
      7 C         138.5754  140.4582  162.5624 C.3     1  UNL1        0.0936
      8 N         138.9627  139.2173  161.8141 N.pl3   1  UNL1       -0.2782
      9 C         139.1244  137.9189  162.5477 C.3     1  UNL1        0.0936
     10 C         138.8989  137.8616  164.0295 C.3     1  UNL1        0.0216
     11 C         139.1882  139.2746  160.3323 C.ar    1  UNL1        0.2202
     12 N         138.3244  140.1519  159.4756 N.ar    1  UNL1       -0.2112
     13 C         138.5500  140.2092  157.9937 C.ar    1  UNL1        0.1147
     14 C         139.6393  139.3892  157.3686 C.ar    1  UNL1        0.0960
     15 CL        139.8649  139.4465  155.8868 Cl      1  UNL1       -0.0790
     16 C         140.5031  138.5119  158.2253 C.ar    1  UNL1        0.1147
     17 N         140.2776  138.4546  159.7072 N.ar    1  UNL1       -0.2112
     18 C         140.7606  139.7143  169.1449 C.3     1  UNL1        0.2055
     19 O         142.0827  140.3776  168.8963 O.3     1  UNL1       -0.4732
     20 C         143.1193  141.8542  164.7738 C.ar    1  UNL1       -0.0106
     21 C         142.3223  140.5945  164.9409 C.ar    1  UNL1       -0.0005
     22 C         141.9768  140.1024  166.3150 C.ar    1  UNL1        0.0389
     23 C         142.4283  140.8699  167.5221 C.ar    1  UNL1        0.1658
     24 C         143.2253  142.1296  167.3551 C.ar    1  UNL1        0.1735
     25 F         143.6767  142.8971  168.5622 F       1  UNL1       -0.2010
     26 C         143.5708  142.6217  165.9809 C.ar    1  UNL1        0.0290
     27 C         143.4649  142.3464  163.3996 C.3     1  UNL1        0.1116
     28 O         144.1298  144.6670  162.4390 O.2     1  UNL1       -0.2745
     29 C         143.0866  143.7371  162.9839 C.2     1  UNL1        0.2301
     30 N         141.6650  144.1980  163.1132 N.am    1  UNL1       -0.2791
     31 C         140.9312  145.4712  162.8125 C.3     1  UNL1        0.0952
     32 C         139.6545  144.8497  163.2960 C.3     1  UNL1        0.0430
     33 C         140.3883  143.5765  163.5968 C.3     1  UNL1        0.0952
@<TRIPOS>BOND
     1    28    29    2
     2    29    27    1
     3    27    20    1
     4    20    21   ar
     5    21    22   ar
     6    22    23   ar
     7    23    19    1
     8    19    18    1
     9    18     1    1
    10     2     1    1
    11     2     3    1
    12     3     4    1
    13     4     5    1
    14     5     6    1
    15     6     7    1
    16     7     8    1
    17     8    11    1
    18    11    12   ar
    19    12    13   ar
    20    13    14   ar
    21    14    15    1
    22    14    16   ar
    23    16    17   ar
    24     8     9    1
    25     9    10    1
    26    23    24   ar
    27    24    25    1
    28    24    26   ar
    29    29    30   am
    30    30    31    1
    31    31    32    1
    32    32    33    1
    33    26    20   ar
    34    33    30    1
    35     4     2    1
    36    10     5    1
    37    17    11   ar
@<TRIPOS>MOLECULE
*****
 33 37 0 0 0
SMALL
GASTEIGER

@<TRIPOS>ATOM
      1 C         140.4326  145.2149  160.2325 C.3     1  UNL1        0.0473
      2 C         141.3584  144.0726  160.5288 C.3     1  UNL1        0.0037
      3 C         142.3247  143.0273  160.0558 C.3     1  UNL1        0.0001
      4 C         141.9957  143.1392  161.5150 C.3     1  UNL1        0.0002
      5 C         142.1737  142.6648  162.9268 C.3     1  UNL1        0.0034
      6 C         142.0924  143.6417  164.0621 C.3     1  UNL1        0.0216
      7 C         142.2704  143.1673  165.4739 C.3     1  UNL1        0.0936
      8 N         142.5297  141.7161  165.7505 N.pl3   1  UNL1       -0.2782
      9 C         142.6109  140.7391  164.6152 C.3     1  UNL1        0.0936
     10 C         142.4329  141.2135  163.2033 C.3     1  UNL1        0.0216
     11 C         142.7076  141.2417  167.1623 C.ar    1  UNL1        0.2202
     12 N         143.1023  142.2124  168.2356 N.ar    1  UNL1       -0.2112
     13 C         143.2803  141.7381  169.6474 C.ar    1  UNL1        0.1147
     14 C         143.0636  140.2930  169.9860 C.ar    1  UNL1        0.0960
     15 CL        143.2416  139.8186  171.3979 Cl      1  UNL1       -0.0790
     16 C         142.6689  139.3222  168.9128 C.ar    1  UNL1        0.1147
     17 N         142.4910  139.7966  167.5009 N.ar    1  UNL1       -0.2112
     18 C         139.8790  146.0422  161.3547 C.3     1  UNL1        0.2055
     19 O         138.5703  145.6698  161.9861 O.3     1  UNL1       -0.4732
     20 C         138.0471  141.6084  163.8518 C.ar    1  UNL1       -0.0106
     21 C         137.8892  141.7790  162.3700 C.ar    1  UNL1       -0.0005
     22 C         138.0636  143.1328  161.7481 C.ar    1  UNL1        0.0389
     23 C         138.3959  144.3160  162.6081 C.ar    1  UNL1        0.1658
     24 C         138.5538  144.1454  164.0899 C.ar    1  UNL1        0.1735
     25 F         138.8861  145.3286  164.9499 F       1  UNL1       -0.2010
     26 C         138.3794  142.7916  164.7118 C.ar    1  UNL1        0.0290
     27 C         137.8727  140.2546  164.4738 C.3     1  UNL1        0.1116
     28 O         139.4976  139.5142  166.3609 O.2     1  UNL1       -0.2745
     29 C         139.0731  139.4752  164.9228 C.2     1  UNL1        0.2301
     30 N         139.8490  138.6568  163.9337 N.am    1  UNL1       -0.2791
     31 C         141.0609  137.7760  164.0047 C.3     1  UNL1        0.0952
     32 C         140.9462  137.4996  162.5348 C.3     1  UNL1        0.0430
     33 C         139.7342  138.3805  162.4638 C.3     1  UNL1        0.0952
@<TRIPOS>BOND
     1    28    29    2
     2    29    27    1
     3    27    20    1
     4    20    21   ar
     5    21    22   ar
     6    22    23   ar
     7    23    19    1
     8    19    18    1
     9    18     1    1
    10     2     1    1
    11     2     3    1
    12     3     4    1
    13     4     5    1
    14     5     6    1
    15     6     7    1
    16     7     8    1
    17     8    11    1
    18    11    12   ar
    19    12    13   ar
    20    13    14   ar
    21    14    15    1
    22    14    16   ar
    23    16    17   ar
    24     8     9    1
    25     9    10    1
    26    23    24   ar
    27    24    25    1
    28    24    26   ar
    29    29    30   am
    30    30    31    1
    31    31    32    1
    32    32    33    1
    33    26    20   ar
    34    33    30    1
    35     4     2    1
    36    10     5    1
    37    17    11   ar
@<TRIPOS>MOLECULE
*****
 33 37 0 0 0
SMALL
GASTEIGER

@<TRIPOS>ATOM
      1 C         138.8724  140.2904  166.2103 C.3     1  UNL1        0.0473
      2 C         138.6311  141.2229  165.0605 C.3     1  UNL1        0.0037
      3 C         138.2635  142.5832  164.5462 C.3     1  UNL1        0.0001
      4 C         138.5807  141.4779  163.5832 C.3     1  UNL1        0.0002
      5 C         138.7347  140.9869  162.1742 C.3     1  UNL1        0.0034
      6 C         137.5749  140.3444  161.4728 C.3     1  UNL1        0.0216
      7 C         137.7290  139.8534  160.0639 C.3     1  UNL1        0.0936
      8 N         139.0428  140.0049  159.3563 N.pl3   1  UNL1       -0.2782
      9 C         140.2027  140.6474  160.0576 C.3     1  UNL1        0.0936
     10 C         140.0486  141.1384  161.4666 C.3     1  UNL1        0.0216
     11 C         139.1969  139.5139  157.9473 C.ar    1  UNL1        0.2202
     12 N         140.2874  138.5419  157.6068 N.ar    1  UNL1       -0.2112
     13 C         140.4415  138.0509  156.1978 C.ar    1  UNL1        0.1147
     14 C         139.5050  138.5319  155.1294 C.ar    1  UNL1        0.0960
     15 CL        139.6590  138.0409  153.7204 Cl      1  UNL1       -0.0790
     16 C         138.4145  139.5039  155.4699 C.ar    1  UNL1        0.1147
     17 N         138.2604  139.9949  156.8788 N.ar    1  UNL1       -0.2112
     18 C         138.1198  138.9957  166.2966 C.3     1  UNL1        0.2055
     19 O         138.6270  137.7837  165.5729 O.3     1  UNL1       -0.4732
     20 C         142.2493  138.0981  162.9215 C.ar    1  UNL1       -0.0106
     21 C         142.3812  138.3132  164.4001 C.ar    1  UNL1       -0.0005
     22 C         141.1738  138.2084  165.2839 C.ar    1  UNL1        0.0389
     23 C         139.8345  137.8885  164.6891 C.ar    1  UNL1        0.1658
     24 C         139.7025  137.6734  163.2105 C.ar    1  UNL1        0.1735
     25 F         138.3632  137.3535  162.6157 F       1  UNL1       -0.2010
     26 C         140.9099  137.7782  162.3267 C.ar    1  UNL1        0.0290
     27 C         143.4567  138.2029  162.0376 C.3     1  UNL1        0.1116
     28 O         143.6355  139.9900  160.1603 O.2     1  UNL1       -0.2745
     29 C         143.9250  139.5469  161.5638 C.2     1  UNL1        0.2301
     30 N         144.6828  140.4477  162.4935 N.am    1  UNL1       -0.2791
     31 C         145.2915  141.8142  162.3844 C.3     1  UNL1        0.0952
     32 C         145.7544  141.7217  163.8083 C.3     1  UNL1        0.0430
     33 C         145.1456  140.3551  163.9173 C.3     1  UNL1        0.0952
@<TRIPOS>BOND
     1    28    29    2
     2    29    27    1
     3    27    20    1
     4    20    21   ar
     5    21    22   ar
     6    22    23   ar
     7    23    19    1
     8    19    18    1
     9    18     1    1
    10     2     1    1
    11     2     3    1
    12     3     4    1
    13     4     5    1
    14     5     6    1
    15     6     7    1
    16     7     8    1
    17     8    11    1
    18    11    12   ar
    19    12    13   ar
    20    13    14   ar
    21    14    15    1
    22    14    16   ar
    23    16    17   ar
    24     8     9    1
    25     9    10    1
    26    23    24   ar
    27    24    25    1
    28    24    26   ar
    29    29    30   am
    30    30    31    1
    31    31    32    1
    32    32    33    1
    33    26    20   ar
    34    33    30    1
    35     4     2    1
    36    10     5    1
    37    17    11   ar
