@<TRIPOS>MOLECULE
*****
 36 39 0 0 0
SMALL
GASTEIGER

@<TRIPOS>ATOM
      1 C         141.0039  141.4311  166.7930 C.2     1  UNL1       -0.0039
      2 C         140.6706  139.9769  166.9486 C.2     1  UNL1       -0.0221
      3 C         141.3260  142.2601  168.0009 C.ar    1  UNL1        0.0027
      4 C         140.2814  143.1583  168.5944 C.ar    1  UNL1        0.0002
      5 C         140.6035  143.9872  169.8023 C.ar    1  UNL1        0.0031
      6 C         141.9702  143.9181  170.4167 C.ar    1  UNL1        0.0366
      7 C         143.0147  143.0200  169.8232 C.ar    1  UNL1        0.1337
      8 O         144.3814  142.9509  170.4376 O.3     1  UNL1       -0.5055
      9 C         142.6927  142.1910  168.6152 C.ar    1  UNL1        0.0366
     10 H         144.5826  143.4687  171.1921 H       1  UNL1        0.2922
     11 C         141.0373  143.3067  162.7026 C.ar    1  UNL1        0.0479
     12 C         142.2448  142.5680  163.1989 C.ar    1  UNL1        0.0145
     13 C         142.2336  141.9427  164.5623 C.ar    1  UNL1        0.0013
     14 C         141.0150  142.0563  165.4295 C.ar    1  UNL1       -0.0002
     15 C         139.8076  142.7951  164.9333 C.ar    1  UNL1        0.0013
     16 C         139.8188  143.4203  163.5699 C.ar    1  UNL1        0.0145
     17 N         141.0708  145.1824  158.6123 N.3     1  UNL1       -0.2711
     18 C         140.1955  145.7495  159.6903 C.3     1  UNL1        0.0938
     19 C         140.1843  145.1243  161.0538 C.3     1  UNL1        0.1081
     20 N         141.0485  143.9319  161.3392 N.pl3   1  UNL1       -0.3046
     21 C         141.9238  143.3648  160.2612 C.3     1  UNL1        0.1081
     22 C         141.9350  143.9900  158.8977 C.3     1  UNL1        0.0938
     23 C         139.9203  146.6419  156.7968 C.3     1  UNL1        0.0173
     24 C         141.0819  145.8076  157.2488 C.3     1  UNL1        0.0577
     25 C         142.2547  145.5984  156.3374 C.3     1  UNL1        0.0173
     26 C         140.3485  139.1479  165.7407 C.ar    1  UNL1       -0.0040
     27 C         141.4059  138.2834  165.1206 C.ar    1  UNL1       -0.0003
     28 C         141.0838  137.4544  163.9127 C.ar    1  UNL1       -0.0000
     29 C         139.7042  137.4898  163.3249 C.ar    1  UNL1       -0.0000
     30 C         138.6468  138.3543  163.9450 C.ar    1  UNL1       -0.0000
     31 C         138.9689  139.1833  165.1529 C.ar    1  UNL1       -0.0003
     32 C         140.6595  139.3517  168.3120 C.3     1  UNL1        0.0289
     33 C         139.6578  139.8002  169.3346 C.3     1  UNL1        0.0364
     34 C         140.0697  139.9606  170.7680 C.3     1  UNL1        0.1375
     35 O         139.5635  139.0028  171.8054 O.3     1  UNL1       -0.3820
     36 H         138.6036  139.1060  171.8999 H       1  UNL1        0.2104
@<TRIPOS>BOND
     1    23    24    1
     2    24    25    1
     3    24    17    1
     4    17    18    1
     5    18    19    1
     6    19    20    1
     7    20    11    1
     8    11    12   ar
     9    12    13   ar
    10    13    14   ar
    11    14     1    1
    12     1     2    2
    13     2    32    1
    14    32    33    1
    15    33    34    1
    16    34    35    1
    17     2    26    1
    18    26    27   ar
    19    27    28   ar
    20    28    29   ar
    21    29    30   ar
    22    30    31   ar
    23     1     3    1
    24     3     4   ar
    25     4     5   ar
    26     5     6   ar
    27     6     7   ar
    28     7     8    1
    29     7     9   ar
    30    14    15   ar
    31    15    16   ar
    32    20    21    1
    33    21    22    1
    34    22    17    1
    35    16    11   ar
    36    31    26   ar
    37     9     3   ar
    38    35    36    1
    39     8    10    1
@<TRIPOS>MOLECULE
*****
 36 39 0 0 0
SMALL
GASTEIGER

@<TRIPOS>ATOM
      1 C         141.2219  140.3702  165.5253 C.2     1  UNL1       -0.0039
      2 C         139.8378  139.7932  165.5611 C.2     1  UNL1       -0.0221
      3 C         141.9268  140.7085  166.8054 C.ar    1  UNL1        0.0027
      4 C         142.4168  142.1058  167.0451 C.ar    1  UNL1        0.0002
      5 C         143.1217  142.4442  168.3252 C.ar    1  UNL1        0.0031
      6 C         143.3366  141.3852  169.3656 C.ar    1  UNL1        0.0366
      7 C         142.8466  139.9879  169.1259 C.ar    1  UNL1        0.1337
      8 O         143.0615  138.9290  170.1663 O.3     1  UNL1       -0.5055
      9 C         142.1417  139.6495  167.8458 C.ar    1  UNL1        0.0366
     10 H         143.5018  139.1403  170.9660 H       1  UNL1        0.2922
     11 C         143.2596  141.0862  161.5775 C.ar    1  UNL1        0.0479
     12 C         143.4853  139.8000  162.3156 C.ar    1  UNL1        0.0145
     13 C         142.8060  139.5614  163.6315 C.ar    1  UNL1        0.0013
     14 C         141.9012  140.6089  164.2094 C.ar    1  UNL1       -0.0002
     15 C         141.6755  141.8950  163.4713 C.ar    1  UNL1        0.0013
     16 C         142.3548  142.1337  162.1553 C.ar    1  UNL1        0.0145
     17 N         145.2973  141.8022  157.6297 N.3     1  UNL1       -0.2711
     18 C         145.4757  142.7791  158.7538 C.3     1  UNL1        0.0938
     19 C         144.7964  142.5405  160.0698 C.3     1  UNL1        0.1081
     20 N         143.9389  141.3248  160.2616 N.pl3   1  UNL1       -0.3046
     21 C         143.7606  140.3479  159.1374 C.3     1  UNL1        0.1081
     22 C         144.4398  140.5866  157.8215 C.3     1  UNL1        0.0938
     23 C         147.3937  142.5313  156.2793 C.3     1  UNL1        0.0173
     24 C         145.9766  142.0408  156.3138 C.3     1  UNL1        0.0577
     25 C         145.2387  141.7890  155.0323 C.3     1  UNL1        0.0173
     26 C         139.1329  139.4549  164.2810 C.ar    1  UNL1       -0.0040
     27 C         138.3210  140.4988  163.5733 C.ar    1  UNL1       -0.0003
     28 C         137.6161  140.1605  162.2932 C.ar    1  UNL1       -0.0000
     29 C         137.7231  138.7781  161.7208 C.ar    1  UNL1       -0.0000
     30 C         138.5351  137.7341  162.4286 C.ar    1  UNL1       -0.0000
     31 C         139.2399  138.0725  163.7086 C.ar    1  UNL1       -0.0003
     32 C         139.1586  139.5546  166.8771 C.3     1  UNL1        0.0289
     33 C         137.7194  139.1331  166.9127 C.3     1  UNL1        0.0364
     34 C         137.3653  137.6911  167.1256 C.3     1  UNL1        0.1375
     35 O         136.5404  137.2887  168.3120 O.3     1  UNL1       -0.3820
     36 H         137.0418  137.4545  169.1256 H       1  UNL1        0.2104
@<TRIPOS>BOND
     1    23    24    1
     2    24    25    1
     3    24    17    1
     4    17    18    1
     5    18    19    1
     6    19    20    1
     7    20    11    1
     8    11    12   ar
     9    12    13   ar
    10    13    14   ar
    11    14     1    1
    12     1     2    2
    13     2    32    1
    14    32    33    1
    15    33    34    1
    16    34    35    1
    17     2    26    1
    18    26    27   ar
    19    27    28   ar
    20    28    29   ar
    21    29    30   ar
    22    30    31   ar
    23     1     3    1
    24     3     4   ar
    25     4     5   ar
    26     5     6   ar
    27     6     7   ar
    28     7     8    1
    29     7     9   ar
    30    14    15   ar
    31    15    16   ar
    32    20    21    1
    33    21    22    1
    34    22    17    1
    35    16    11   ar
    36    31    26   ar
    37     9     3   ar
    38    35    36    1
    39     8    10    1
@<TRIPOS>MOLECULE
*****
 36 39 0 0 0
SMALL
GASTEIGER

@<TRIPOS>ATOM
      1 C         140.8956  140.0148  165.2430 C.2     1  UNL1       -0.0039
      2 C         142.2334  140.0442  165.9208 C.2     1  UNL1       -0.0221
      3 C         139.7686  139.2268  165.8419 C.ar    1  UNL1        0.0027
      4 C         139.2085  138.0435  165.1096 C.ar    1  UNL1        0.0002
      5 C         138.0815  137.2555  165.7085 C.ar    1  UNL1        0.0031
      6 C         137.5144  137.6507  167.0398 C.ar    1  UNL1        0.0366
      7 C         138.0745  138.8339  167.7721 C.ar    1  UNL1        0.1337
      8 O         137.5074  139.2291  169.1034 O.3     1  UNL1       -0.5055
      9 C         139.2015  139.6220  167.1732 C.ar    1  UNL1        0.0366
     10 H         136.8034  138.7368  169.4775 H       1  UNL1        0.2922
     11 C         140.2634  142.2908  161.4128 C.ar    1  UNL1        0.0479
     12 C         139.9155  142.9237  162.7274 C.ar    1  UNL1        0.0145
     13 C         140.1262  142.1650  164.0042 C.ar    1  UNL1        0.0013
     14 C         140.6849  140.7735  163.9662 C.ar    1  UNL1       -0.0002
     15 C         141.0327  140.1406  162.6516 C.ar    1  UNL1        0.0013
     16 C         140.8220  140.8992  161.3749 C.ar    1  UNL1        0.0145
     17 N         139.6312  144.5667  157.5826 N.3     1  UNL1       -0.2711
     18 C         140.3655  145.2071  158.7230 C.3     1  UNL1        0.0938
     19 C         140.5763  144.4484  159.9998 C.3     1  UNL1        0.1081
     20 N         140.0526  143.0494  160.1361 N.pl3   1  UNL1       -0.3046
     21 C         139.3183  142.4091  158.9956 C.3     1  UNL1        0.1081
     22 C         139.1075  143.1677  157.7189 C.3     1  UNL1        0.0938
     23 C         138.3460  144.9003  155.3495 C.3     1  UNL1        0.0173
     24 C         139.4204  145.3254  156.3059 C.3     1  UNL1        0.0577
     25 C         140.2841  146.5091  155.9856 C.3     1  UNL1        0.0173
     26 C         143.3605  140.8322  165.3218 C.ar    1  UNL1       -0.0040
     27 C         144.3660  140.1521  164.4408 C.ar    1  UNL1       -0.0003
     28 C         145.4932  140.9401  163.8419 C.ar    1  UNL1       -0.0000
     29 C         145.6147  142.4083  164.1240 C.ar    1  UNL1       -0.0000
     30 C         144.6091  143.0885  165.0051 C.ar    1  UNL1       -0.0000
     31 C         143.4820  142.3004  165.6040 C.ar    1  UNL1       -0.0003
     32 C         142.4441  139.2855  167.1975 C.3     1  UNL1        0.0289
     33 C         142.6458  140.0269  168.4859 C.3     1  UNL1        0.0364
     34 C         142.5242  139.3035  169.7943 C.3     1  UNL1        0.1375
     35 O         143.4106  139.6797  170.9444 O.3     1  UNL1       -0.3820
     36 H         144.3314  139.4666  170.7262 H       1  UNL1        0.2104
@<TRIPOS>BOND
     1    23    24    1
     2    24    25    1
     3    24    17    1
     4    17    18    1
     5    18    19    1
     6    19    20    1
     7    20    11    1
     8    11    12   ar
     9    12    13   ar
    10    13    14   ar
    11    14     1    1
    12     1     2    2
    13     2    32    1
    14    32    33    1
    15    33    34    1
    16    34    35    1
    17     2    26    1
    18    26    27   ar
    19    27    28   ar
    20    28    29   ar
    21    29    30   ar
    22    30    31   ar
    23     1     3    1
    24     3     4   ar
    25     4     5   ar
    26     5     6   ar
    27     6     7   ar
    28     7     8    1
    29     7     9   ar
    30    14    15   ar
    31    15    16   ar
    32    20    21    1
    33    21    22    1
    34    22    17    1
    35    16    11   ar
    36    31    26   ar
    37     9     3   ar
    38    35    36    1
    39     8    10    1
@<TRIPOS>MOLECULE
*****
 36 39 0 0 0
SMALL
GASTEIGER

@<TRIPOS>ATOM
      1 C         140.6310  141.1368  162.3140 C.2     1  UNL1       -0.0039
      2 C         140.6152  142.0120  163.5321 C.2     1  UNL1       -0.0221
      3 C         139.5664  140.0975  162.1235 C.ar    1  UNL1        0.0027
      4 C         139.6635  138.7840  162.8414 C.ar    1  UNL1        0.0002
      5 C         138.5990  137.7446  162.6509 C.ar    1  UNL1        0.0031
      6 C         137.4372  138.0186  161.7425 C.ar    1  UNL1        0.0366
      7 C         137.3400  139.3320  161.0245 C.ar    1  UNL1        0.1337
      8 O         136.1783  139.6061  160.1161 O.3     1  UNL1       -0.5055
      9 C         138.4046  140.3715  161.2150 C.ar    1  UNL1        0.0366
     10 H         135.5133  138.9568  159.9971 H       1  UNL1        0.2922
     11 C         143.8718  141.6297  159.2311 C.ar    1  UNL1        0.0479
     12 C         143.9607  140.5259  160.2428 C.ar    1  UNL1        0.0145
     13 C         142.8804  140.3616  161.2705 C.ar    1  UNL1        0.0013
     14 C         141.7112  141.3011  161.2863 C.ar    1  UNL1       -0.0002
     15 C         141.6223  142.4049  160.2746 C.ar    1  UNL1        0.0013
     16 C         142.7026  142.5692  159.2470 C.ar    1  UNL1        0.0145
     17 N         147.1126  142.1225  156.1482 N.3     1  UNL1       -0.2711
     18 C         147.1315  142.9548  157.3959 C.3     1  UNL1        0.0938
     19 C         146.0513  142.7906  158.4235 C.3     1  UNL1        0.1081
     20 N         144.9521  141.7939  158.2035 N.pl3   1  UNL1       -0.3046
     21 C         144.9332  140.9616  156.9558 C.3     1  UNL1        0.1081
     22 C         146.0134  141.1259  155.9281 C.3     1  UNL1        0.0938
     23 C         147.9103  143.0274  153.8472 C.3     1  UNL1        0.0173
     24 C         148.1929  142.2867  155.1206 C.3     1  UNL1        0.0577
     25 C         149.5557  141.7104  155.3663 C.3     1  UNL1        0.0173
     26 C         141.6798  143.0514  163.7227 C.ar    1  UNL1       -0.0040
     27 C         141.4112  144.4781  163.3453 C.ar    1  UNL1       -0.0003
     28 C         142.4758  145.5175  163.5358 C.ar    1  UNL1       -0.0000
     29 C         143.8090  145.1302  164.1038 C.ar    1  UNL1       -0.0000
     30 C         144.0776  143.7035  164.4812 C.ar    1  UNL1       -0.0000
     31 C         143.0131  142.6641  164.2906 C.ar    1  UNL1       -0.0003
     32 C         139.5350  141.8477  164.5597 C.3     1  UNL1        0.0289
     33 C         138.1593  142.3834  164.2939 C.3     1  UNL1        0.0364
     34 C         137.9881  143.6764  163.5531 C.3     1  UNL1        0.1375
     35 O         137.6588  143.6645  162.0898 O.3     1  UNL1       -0.3820
     36 H         138.4039  143.2906  161.5938 H       1  UNL1        0.2104
@<TRIPOS>BOND
     1    23    24    1
     2    24    25    1
     3    24    17    1
     4    17    18    1
     5    18    19    1
     6    19    20    1
     7    20    11    1
     8    11    12   ar
     9    12    13   ar
    10    13    14   ar
    11    14     1    1
    12     1     2    2
    13     2    32    1
    14    32    33    1
    15    33    34    1
    16    34    35    1
    17     2    26    1
    18    26    27   ar
    19    27    28   ar
    20    28    29   ar
    21    29    30   ar
    22    30    31   ar
    23     1     3    1
    24     3     4   ar
    25     4     5   ar
    26     5     6   ar
    27     6     7   ar
    28     7     8    1
    29     7     9   ar
    30    14    15   ar
    31    15    16   ar
    32    20    21    1
    33    21    22    1
    34    22    17    1
    35    16    11   ar
    36    31    26   ar
    37     9     3   ar
    38    35    36    1
    39     8    10    1
@<TRIPOS>MOLECULE
*****
 36 39 0 0 0
SMALL
GASTEIGER

@<TRIPOS>ATOM
      1 C         140.7180  140.6238  166.4372 C.2     1  UNL1       -0.0039
      2 C         142.1396  140.8644  166.8511 C.2     1  UNL1       -0.0221
      3 C         139.7080  140.1731  167.4505 C.ar    1  UNL1        0.0027
      4 C         139.7271  140.7483  168.8357 C.ar    1  UNL1        0.0002
      5 C         138.7171  140.2976  169.8489 C.ar    1  UNL1        0.0031
      6 C         137.6879  139.2716  169.4770 C.ar    1  UNL1        0.0366
      7 C         137.6688  138.6964  168.0918 C.ar    1  UNL1        0.1337
      8 O         136.6397  137.6705  167.7199 O.3     1  UNL1       -0.5055
      9 C         138.6789  139.1471  167.0785 C.ar    1  UNL1        0.0366
     10 H         136.0088  137.3889  168.3529 H       1  UNL1        0.2922
     11 C         139.4835  141.2540  162.1560 C.ar    1  UNL1        0.0479
     12 C         139.2718  142.3429  163.1657 C.ar    1  UNL1        0.0145
     13 C         139.6833  142.1328  164.5928 C.ar    1  UNL1        0.0013
     14 C         140.3065  140.8339  165.0102 C.ar    1  UNL1       -0.0002
     15 C         140.5183  139.7450  164.0005 C.ar    1  UNL1        0.0013
     16 C         140.1068  139.9551  162.5734 C.ar    1  UNL1        0.0145
     17 N         138.2490  141.8843  157.8748 N.3     1  UNL1       -0.2711
     18 C         138.9394  142.9838  158.6259 C.3     1  UNL1        0.0938
     19 C         139.3509  142.7737  160.0530 C.3     1  UNL1        0.1081
     20 N         139.0720  141.4641  160.7289 N.pl3   1  UNL1       -0.3046
     21 C         138.3816  140.3645  159.9778 C.3     1  UNL1        0.1081
     22 C         137.9701  140.5746  158.5508 C.3     1  UNL1        0.0938
     23 C         137.9135  140.9590  155.4704 C.3     1  UNL1        0.0173
     24 C         137.8375  142.0943  156.4477 C.3     1  UNL1        0.0577
     25 C         137.3501  143.4397  155.9980 C.3     1  UNL1        0.0173
     26 C         143.1497  141.3151  165.8378 C.ar    1  UNL1       -0.0040
     27 C         143.9450  140.3017  165.0695 C.ar    1  UNL1       -0.0003
     28 C         144.9551  140.7524  164.0563 C.ar    1  UNL1       -0.0000
     29 C         145.1698  142.2167  163.8114 C.ar    1  UNL1       -0.0000
     30 C         144.3745  143.2301  164.5798 C.ar    1  UNL1       -0.0000
     31 C         143.3644  142.7794  165.5930 C.ar    1  UNL1       -0.0003
     32 C         142.5511  140.6543  168.2782 C.3     1  UNL1        0.0289
     33 C         143.2897  141.7339  169.0124 C.3     1  UNL1        0.0364
     34 C         142.5294  142.7707  169.7850 C.3     1  UNL1        0.1375
     35 O         143.0928  143.3162  171.0637 O.3     1  UNL1       -0.3820
     36 H         143.1271  142.6109  171.7287 H       1  UNL1        0.2104
@<TRIPOS>BOND
     1    23    24    1
     2    24    25    1
     3    24    17    1
     4    17    18    1
     5    18    19    1
     6    19    20    1
     7    20    11    1
     8    11    12   ar
     9    12    13   ar
    10    13    14   ar
    11    14     1    1
    12     1     2    2
    13     2    32    1
    14    32    33    1
    15    33    34    1
    16    34    35    1
    17     2    26    1
    18    26    27   ar
    19    27    28   ar
    20    28    29   ar
    21    29    30   ar
    22    30    31   ar
    23     1     3    1
    24     3     4   ar
    25     4     5   ar
    26     5     6   ar
    27     6     7   ar
    28     7     8    1
    29     7     9   ar
    30    14    15   ar
    31    15    16   ar
    32    20    21    1
    33    21    22    1
    34    22    17    1
    35    16    11   ar
    36    31    26   ar
    37     9     3   ar
    38    35    36    1
    39     8    10    1
@<TRIPOS>MOLECULE
*****
 36 39 0 0 0
SMALL
GASTEIGER

@<TRIPOS>ATOM
      1 C         140.3055  141.3762  159.1168 C.2     1  UNL1       -0.0039
      2 C         139.8423  141.4075  160.5431 C.2     1  UNL1       -0.0221
      3 C         140.3390  142.6411  158.3113 C.ar    1  UNL1        0.0027
      4 C         139.2033  142.9737  157.3895 C.ar    1  UNL1        0.0002
      5 C         139.2368  144.2386  156.5840 C.ar    1  UNL1        0.0031
      6 C         140.4061  145.1710  156.7003 C.ar    1  UNL1        0.0366
      7 C         141.5418  144.8385  157.6220 C.ar    1  UNL1        0.1337
      8 O         142.7110  145.7709  157.7382 O.3     1  UNL1       -0.5055
      9 C         141.5083  143.5735  158.4275 C.ar    1  UNL1        0.0366
     10 H         142.7320  146.5610  157.2350 H       1  UNL1        0.2922
     11 C         141.5941  137.4878  157.2542 C.ar    1  UNL1        0.0479
     12 C         142.5964  138.3466  157.9667 C.ar    1  UNL1        0.0145
     13 C         142.1669  139.6427  158.5876 C.ar    1  UNL1        0.0013
     14 C         140.7350  140.0801  158.4959 C.ar    1  UNL1       -0.0002
     15 C         139.7327  139.2212  157.7834 C.ar    1  UNL1        0.0013
     16 C         140.1622  137.9251  157.1626 C.ar    1  UNL1        0.0145
     17 N         142.8828  133.5993  155.3916 N.3     1  UNL1       -0.2711
     18 C         141.6828  134.3248  154.8589 C.3     1  UNL1        0.0938
     19 C         141.2533  135.6209  155.4798 C.3     1  UNL1        0.1081
     20 N         142.0237  136.1916  156.6334 N.pl3   1  UNL1       -0.3046
     21 C         143.2236  135.4661  157.1661 C.3     1  UNL1        0.1081
     22 C         143.6531  134.1700  156.5452 C.3     1  UNL1        0.0938
     23 C         144.2709  131.4057  155.4957 C.3     1  UNL1        0.0173
     24 C         143.3123  132.3031  154.7708 C.3     1  UNL1        0.0577
     25 C         142.7832  131.9044  153.4250 C.3     1  UNL1        0.0173
     26 C         139.8088  140.1425  161.3487 C.ar    1  UNL1       -0.0040
     27 C         138.6195  139.2322  161.2662 C.ar    1  UNL1       -0.0003
     28 C         138.5859  137.9673  162.0718 C.ar    1  UNL1       -0.0000
     29 C         139.7416  137.6127  162.9598 C.ar    1  UNL1       -0.0000
     30 C         140.9310  138.5231  163.0422 C.ar    1  UNL1       -0.0000
     31 C         140.9645  139.7880  162.2367 C.ar    1  UNL1       -0.0003
     32 C         139.4128  142.7036  161.1640 C.3     1  UNL1        0.0289
     33 C         138.0067  142.8680  161.6600 C.3     1  UNL1        0.0364
     34 C         137.6341  142.3873  163.0311 C.3     1  UNL1        0.1375
     35 O         136.5886  141.3243  163.1949 O.3     1  UNL1       -0.3820
     36 H         135.7294  141.6684  162.9044 H       1  UNL1        0.2104
@<TRIPOS>BOND
     1    23    24    1
     2    24    25    1
     3    24    17    1
     4    17    18    1
     5    18    19    1
     6    19    20    1
     7    20    11    1
     8    11    12   ar
     9    12    13   ar
    10    13    14   ar
    11    14     1    1
    12     1     2    2
    13     2    32    1
    14    32    33    1
    15    33    34    1
    16    34    35    1
    17     2    26    1
    18    26    27   ar
    19    27    28   ar
    20    28    29   ar
    21    29    30   ar
    22    30    31   ar
    23     1     3    1
    24     3     4   ar
    25     4     5   ar
    26     5     6   ar
    27     6     7   ar
    28     7     8    1
    29     7     9   ar
    30    14    15   ar
    31    15    16   ar
    32    20    21    1
    33    21    22    1
    34    22    17    1
    35    16    11   ar
    36    31    26   ar
    37     9     3   ar
    38    35    36    1
    39     8    10    1
@<TRIPOS>MOLECULE
*****
 36 39 0 0 0
SMALL
GASTEIGER

@<TRIPOS>ATOM
      1 C         140.3206  140.9148  164.5210 C.2     1  UNL1       -0.0039
      2 C         141.3134  141.6379  165.3820 C.2     1  UNL1       -0.0221
      3 C         139.6052  139.7084  165.0527 C.ar    1  UNL1        0.0027
      4 C         139.6618  138.4112  164.3015 C.ar    1  UNL1        0.0002
      5 C         138.9464  137.2048  164.8332 C.ar    1  UNL1        0.0031
      6 C         138.1744  137.2955  166.1161 C.ar    1  UNL1        0.0366
      7 C         138.1178  138.5925  166.8673 C.ar    1  UNL1        0.1337
      8 O         137.3458  138.6832  168.1502 O.3     1  UNL1       -0.5055
      9 C         138.8332  139.7990  166.3356 C.ar    1  UNL1        0.0366
     10 H         136.8989  137.9296  168.4823 H       1  UNL1        0.2922
     11 C         139.4885  142.3645  160.3430 C.ar    1  UNL1        0.0479
     12 C         138.4739  142.5780  161.4269 C.ar    1  UNL1        0.0145
     13 C         138.7513  142.0948  162.8196 C.ar    1  UNL1        0.0013
     14 C         140.0432  141.3980  163.1284 C.ar    1  UNL1       -0.0002
     15 C         141.0578  141.1845  162.0444 C.ar    1  UNL1        0.0013
     16 C         140.7804  141.6677  160.6517 C.ar    1  UNL1        0.0145
     17 N         138.6564  143.8141  156.1650 N.3     1  UNL1       -0.2711
     18 C         139.8060  144.3843  156.9416 C.3     1  UNL1        0.0938
     19 C         140.0834  143.9011  158.3343 C.3     1  UNL1        0.1081
     20 N         139.2111  142.8477  158.9503 N.pl3   1  UNL1       -0.3046
     21 C         138.0615  142.2775  158.1736 C.3     1  UNL1        0.1081
     22 C         137.7841  142.7608  156.7810 C.3     1  UNL1        0.0938
     23 C         139.5051  144.7839  153.9090 C.3     1  UNL1        0.0173
     24 C         138.3790  144.2974  154.7723 C.3     1  UNL1        0.0577
     25 C         136.9756  144.2941  154.2428 C.3     1  UNL1        0.0173
     26 C         142.0289  142.8444  164.8504 C.ar    1  UNL1       -0.0040
     27 C         143.5219  142.8285  164.7075 C.ar    1  UNL1       -0.0003
     28 C         144.2374  144.0350  164.1758 C.ar    1  UNL1       -0.0000
     29 C         143.4597  145.2573  163.7870 C.ar    1  UNL1       -0.0000
     30 C         141.9666  145.2732  163.9300 C.ar    1  UNL1       -0.0000
     31 C         141.2512  144.0668  164.4616 C.ar    1  UNL1       -0.0003
     32 C         141.5908  141.1547  166.7747 C.3     1  UNL1        0.0289
     33 C         141.5039  142.1072  167.9303 C.3     1  UNL1        0.0364
     34 C         140.2947  142.9795  168.0940 C.3     1  UNL1        0.1375
     35 O         140.1468  143.8347  169.3174 O.3     1  UNL1       -0.3820
     36 H         140.0448  143.2677  170.0978 H       1  UNL1        0.2104
@<TRIPOS>BOND
     1    23    24    1
     2    24    25    1
     3    24    17    1
     4    17    18    1
     5    18    19    1
     6    19    20    1
     7    20    11    1
     8    11    12   ar
     9    12    13   ar
    10    13    14   ar
    11    14     1    1
    12     1     2    2
    13     2    32    1
    14    32    33    1
    15    33    34    1
    16    34    35    1
    17     2    26    1
    18    26    27   ar
    19    27    28   ar
    20    28    29   ar
    21    29    30   ar
    22    30    31   ar
    23     1     3    1
    24     3     4   ar
    25     4     5   ar
    26     5     6   ar
    27     6     7   ar
    28     7     8    1
    29     7     9   ar
    30    14    15   ar
    31    15    16   ar
    32    20    21    1
    33    21    22    1
    34    22    17    1
    35    16    11   ar
    36    31    26   ar
    37     9     3   ar
    38    35    36    1
    39     8    10    1
@<TRIPOS>MOLECULE
*****
 36 39 0 0 0
SMALL
GASTEIGER

@<TRIPOS>ATOM
      1 C         140.2329  140.7662  164.4986 C.2     1  UNL1       -0.0039
      2 C         141.1977  141.4938  165.3871 C.2     1  UNL1       -0.0221
      3 C         139.5341  139.5366  164.9983 C.ar    1  UNL1        0.0027
      4 C         139.7739  138.2144  164.3316 C.ar    1  UNL1        0.0002
      5 C         139.0752  136.9848  164.8313 C.ar    1  UNL1        0.0031
      6 C         138.1366  137.0773  165.9977 C.ar    1  UNL1        0.0366
      7 C         137.8968  138.3993  166.6644 C.ar    1  UNL1        0.1337
      8 O         136.9582  138.4918  167.8309 O.3     1  UNL1       -0.5055
      9 C         138.5955  139.6290  166.1647 C.ar    1  UNL1        0.0366
     10 H         136.5217  137.7237  168.1430 H       1  UNL1        0.2922
     11 C         139.4344  142.2722  160.3339 C.ar    1  UNL1        0.0479
     12 C         140.7119  141.5470  160.6372 C.ar    1  UNL1        0.0145
     13 C         140.9780  141.0450  162.0254 C.ar    1  UNL1        0.0013
     14 C         139.9667  141.2682  163.1104 C.ar    1  UNL1       -0.0002
     15 C         138.6892  141.9934  162.8072 C.ar    1  UNL1        0.0013
     16 C         138.4231  142.4954  161.4190 C.ar    1  UNL1        0.0145
     17 N         138.6359  143.7782  156.1693 N.3     1  UNL1       -0.2711
     18 C         139.7232  144.3987  156.9956 C.3     1  UNL1        0.0938
     19 C         139.9893  143.8967  158.3838 C.3     1  UNL1        0.1081
     20 N         139.1682  142.7742  158.9457 N.pl3   1  UNL1       -0.3046
     21 C         138.0810  142.1537  158.1194 C.3     1  UNL1        0.1081
     22 C         137.8148  142.6557  156.7312 C.3     1  UNL1        0.0938
     23 C         139.5069  144.7473  153.9216 C.3     1  UNL1        0.0173
     24 C         138.3698  144.2802  154.7811 C.3     1  UNL1        0.0577
     25 C         136.9665  144.3151  154.2523 C.3     1  UNL1        0.0173
     26 C         141.8965  142.7235  164.8874 C.ar    1  UNL1       -0.0040
     27 C         141.1012  143.9410  164.5199 C.ar    1  UNL1       -0.0003
     28 C         141.8000  145.1707  164.0202 C.ar    1  UNL1       -0.0000
     29 C         143.2942  145.1828  163.8881 C.ar    1  UNL1       -0.0000
     30 C         144.0895  143.9652  164.2556 C.ar    1  UNL1       -0.0000
     31 C         143.3907  142.7356  164.7553 C.ar    1  UNL1       -0.0003
     32 C         141.4639  140.9918  166.7754 C.3     1  UNL1        0.0289
     33 C         142.6389  140.0967  167.0368 C.3     1  UNL1        0.0364
     34 C         143.0156  139.0428  166.0382 C.3     1  UNL1        0.1375
     35 O         144.1901  139.2559  165.1298 O.3     1  UNL1       -0.3820
     36 H         144.0027  139.9917  164.5262 H       1  UNL1        0.2104
@<TRIPOS>BOND
     1    23    24    1
     2    24    25    1
     3    24    17    1
     4    17    18    1
     5    18    19    1
     6    19    20    1
     7    20    11    1
     8    11    12   ar
     9    12    13   ar
    10    13    14   ar
    11    14     1    1
    12     1     2    2
    13     2    32    1
    14    32    33    1
    15    33    34    1
    16    34    35    1
    17     2    26    1
    18    26    27   ar
    19    27    28   ar
    20    28    29   ar
    21    29    30   ar
    22    30    31   ar
    23     1     3    1
    24     3     4   ar
    25     4     5   ar
    26     5     6   ar
    27     6     7   ar
    28     7     8    1
    29     7     9   ar
    30    14    15   ar
    31    15    16   ar
    32    20    21    1
    33    21    22    1
    34    22    17    1
    35    16    11   ar
    36    31    26   ar
    37     9     3   ar
    38    35    36    1
    39     8    10    1
@<TRIPOS>MOLECULE
*****
 36 39 0 0 0
SMALL
GASTEIGER

@<TRIPOS>ATOM
      1 C         140.7267  140.6727  164.4272 C.2     1  UNL1       -0.0039
      2 C         139.2634  140.3616  164.3183 C.2     1  UNL1       -0.0221
      3 C         141.3645  140.8157  165.7773 C.ar    1  UNL1        0.0027
      4 C         141.3553  142.1440  166.4742 C.ar    1  UNL1        0.0002
      5 C         141.9932  142.2871  167.8242 C.ar    1  UNL1        0.0031
      6 C         142.6403  141.1019  168.4774 C.ar    1  UNL1        0.0366
      7 C         142.6495  139.7737  167.7806 C.ar    1  UNL1        0.1337
      8 O         143.2965  138.5885  168.4338 O.3     1  UNL1       -0.5055
      9 C         142.0116  139.6306  166.4305 C.ar    1  UNL1        0.0366
     10 H         143.6950  138.6779  169.2771 H       1  UNL1        0.2922
     11 C         143.2030  141.1769  160.7039 C.ar    1  UNL1        0.0479
     12 C         142.6675  142.3827  161.4174 C.ar    1  UNL1        0.0145
     13 C         141.8420  142.2146  162.6585 C.ar    1  UNL1        0.0013
     14 C         141.5521  140.8408  163.1861 C.ar    1  UNL1       -0.0002
     15 C         142.0877  139.6350  162.4726 C.ar    1  UNL1        0.0013
     16 C         142.9131  139.8031  161.2314 C.ar    1  UNL1        0.0145
     17 N         145.6793  141.6812  156.9805 N.3     1  UNL1       -0.2711
     18 C         145.8090  142.6639  158.1062 C.3     1  UNL1        0.0938
     19 C         144.9835  142.4958  159.3474 C.3     1  UNL1        0.1081
     20 N         144.0284  141.3450  159.4627 N.pl3   1  UNL1       -0.3046
     21 C         143.8988  140.3623  158.3370 C.3     1  UNL1        0.1081
     22 C         144.7242  140.5304  157.0959 C.3     1  UNL1        0.0938
     23 C         145.8588  141.7470  154.3895 C.3     1  UNL1        0.0173
     24 C         146.5048  141.8493  155.7394 C.3     1  UNL1        0.0577
     25 C         147.9761  142.1196  155.8481 C.3     1  UNL1        0.0173
     26 C         138.6254  140.2185  162.9683 C.ar    1  UNL1       -0.0040
     27 C         138.2399  138.8606  162.4610 C.ar    1  UNL1       -0.0003
     28 C         137.6020  138.7175  161.1109 C.ar    1  UNL1       -0.0000
     29 C         137.3496  139.9324  160.2682 C.ar    1  UNL1       -0.0000
     30 C         137.7352  141.2904  160.7755 C.ar    1  UNL1       -0.0000
     31 C         138.3731  141.4334  162.1255 C.ar    1  UNL1       -0.0003
     32 C         138.4379  140.1935  165.5595 C.3     1  UNL1        0.0289
     33 C         138.4429  138.8844  166.2919 C.3     1  UNL1        0.0364
     34 C         138.6375  137.6031  165.5366 C.3     1  UNL1        0.1375
     35 O         139.9965  137.2372  165.0180 O.3     1  UNL1       -0.3820
     36 H         140.2629  137.8710  164.3338 H       1  UNL1        0.2104
@<TRIPOS>BOND
     1    23    24    1
     2    24    25    1
     3    24    17    1
     4    17    18    1
     5    18    19    1
     6    19    20    1
     7    20    11    1
     8    11    12   ar
     9    12    13   ar
    10    13    14   ar
    11    14     1    1
    12     1     2    2
    13     2    32    1
    14    32    33    1
    15    33    34    1
    16    34    35    1
    17     2    26    1
    18    26    27   ar
    19    27    28   ar
    20    28    29   ar
    21    29    30   ar
    22    30    31   ar
    23     1     3    1
    24     3     4   ar
    25     4     5   ar
    26     5     6   ar
    27     6     7   ar
    28     7     8    1
    29     7     9   ar
    30    14    15   ar
    31    15    16   ar
    32    20    21    1
    33    21    22    1
    34    22    17    1
    35    16    11   ar
    36    31    26   ar
    37     9     3   ar
    38    35    36    1
    39     8    10    1
