@<TRIPOS>MOLECULE
*****
 34 38 0 0 0
SMALL
GASTEIGER

@<TRIPOS>ATOM
      1 C         139.1269  138.2443  165.5867 C.ar    1  UNL1        0.0727
      2 C         137.8965  137.6149  166.1699 C.ar    1  UNL1        0.1033
      3 N         137.4033  138.0429  167.5203 N.ar    1  UNL1       -0.2437
      4 C         138.1404  139.1004  168.2875 C.ar    1  UNL1        0.0815
      5 C         137.6471  139.5285  169.6378 C.ar    1  UNL1        0.0214
      6 C         138.3842  140.5859  170.4049 C.ar    1  UNL1        0.0312
      7 C         139.6145  141.2153  169.8217 C.ar    1  UNL1        0.1402
      8 F         140.3516  142.2728  170.5889 F       1  UNL1       -0.2042
      9 C         140.1078  140.7873  168.4714 C.ar    1  UNL1        0.0311
     10 C         139.3707  139.7298  167.7042 C.ar    1  UNL1        0.0201
     11 C         139.8640  139.3017  166.3538 C.ar    1  UNL1        0.0074
     12 N         138.5555  140.2218  160.5854 N.3     1  UNL1       -0.1559
     13 C         139.4036  138.9919  160.4520 C.3     1  UNL1        0.1169
     14 C         139.7585  138.1900  161.6691 C.3     1  UNL1        0.1129
     15 N         139.2652  138.6181  163.0194 N.am    1  UNL1       -0.2731
     16 C         139.6201  137.8162  164.2363 C.2     1  UNL1        0.2506
     17 O         140.4683  136.5862  164.1030 O.2     1  UNL1       -0.2699
     18 C         138.4171  139.8481  163.1527 C.3     1  UNL1        0.1129
     19 C         138.0622  140.6499  161.9358 C.3     1  UNL1        0.1169
     20 C         137.8457  141.8256  158.1515 C.3     1  UNL1        0.1960
     21 S         138.2006  141.0237  159.3685 S.O2    1  UNL1        0.0458
     22 O         138.1278  139.7630  158.5590 O.2     1  UNL1       -0.1572
     23 O         138.2733  142.2844  160.1779 O.2     1  UNL1       -0.1572
     24 C         141.0943  139.9311  165.7706 C.ar    1  UNL1        0.0002
     25 C         142.4292  139.2691  165.9434 C.ar    1  UNL1       -0.0003
     26 C         143.6596  139.8985  165.3601 C.ar    1  UNL1       -0.0033
     27 C         143.5550  141.1899  164.6042 C.ar    1  UNL1       -0.0097
     28 C         142.2201  141.8519  164.4315 C.ar    1  UNL1       -0.0033
     29 C         140.9897  141.2225  165.0147 C.ar    1  UNL1       -0.0003
     30 C         144.7853  141.8193  164.0210 C.3     1  UNL1        0.0981
     31 C         145.9535  142.0497  163.1088 C.3     1  UNL1        0.0196
     32 C         145.0337  140.8889  162.8710 C.3     1  UNL1        0.0196
     33 C         144.9642  142.9684  164.9684 C.1     1  UNL1        0.0752
     34 N         145.1430  144.1174  165.9158 N.1     1  UNL1       -0.1956
@<TRIPOS>BOND
     1    20    21    1
     2    21    22    2
     3    21    23    2
     4    21    12    1
     5    12    13    1
     6    13    14    1
     7    14    15    1
     8    15    16   am
     9    16    17    2
    10    16     1    1
    11     1     2   ar
    12     2     3   ar
    13     3     4   ar
    14     4     5   ar
    15     5     6   ar
    16     6     7   ar
    17     7     8    1
    18     7     9   ar
    19     9    10   ar
    20    10    11   ar
    21    11    24    1
    22    24    25   ar
    23    25    26   ar
    24    26    27   ar
    25    27    30    1
    26    30    33    1
    27    33    34    3
    28    30    31    1
    29    31    32    1
    30    27    28   ar
    31    28    29   ar
    32    15    18    1
    33    18    19    1
    34    19    12    1
    35    11     1   ar
    36    29    24   ar
    37    10     4   ar
    38    32    30    1
@<TRIPOS>MOLECULE
*****
 34 38 0 0 0
SMALL
GASTEIGER

@<TRIPOS>ATOM
      1 C         140.3840  138.5834  162.6655 C.ar    1  UNL1        0.0727
      2 C         140.5265  137.3668  163.5311 C.ar    1  UNL1        0.1033
      3 N         141.2038  137.4708  164.8654 N.ar    1  UNL1       -0.2437
      4 C         141.7387  138.7915  165.3341 C.ar    1  UNL1        0.0815
      5 C         142.4160  138.8955  166.6684 C.ar    1  UNL1        0.0214
      6 C         142.9509  140.2162  167.1370 C.ar    1  UNL1        0.0312
      7 C         142.8084  141.4329  166.2713 C.ar    1  UNL1        0.1402
      8 F         143.3434  142.7536  166.7400 F       1  UNL1       -0.2042
      9 C         142.1311  141.3289  164.9370 C.ar    1  UNL1        0.0311
     10 C         141.5963  140.0082  164.4684 C.ar    1  UNL1        0.0201
     11 C         140.9189  139.9041  163.1341 C.ar    1  UNL1        0.0074
     12 N         142.1581  137.8972  157.6026 N.3     1  UNL1       -0.1559
     13 C         140.6636  137.9872  157.5111 C.3     1  UNL1        0.1169
     14 C         139.8464  138.1813  158.7540 C.3     1  UNL1        0.1129
     15 N         140.5238  138.2853  160.0883 N.am    1  UNL1       -0.2731
     16 C         139.7067  138.4794  161.3311 C.2     1  UNL1        0.2506
     17 O         138.2122  138.5694  161.2396 O.2     1  UNL1       -0.2699
     18 C         142.0183  138.1953  160.1798 C.3     1  UNL1        0.1129
     19 C         142.8354  138.0013  158.9370 C.3     1  UNL1        0.1169
     20 C         143.7923  137.5091  155.1170 C.3     1  UNL1        0.1960
     21 S         142.9752  137.7031  156.3598 S.O2    1  UNL1        0.0458
     22 O         142.0466  136.6103  155.9199 O.2     1  UNL1       -0.1572
     23 O         143.9038  138.7959  156.7997 O.2     1  UNL1       -0.1572
     24 C         140.7764  141.1208  162.2684 C.ar    1  UNL1        0.0002
     25 C         141.9205  141.5662  161.4065 C.ar    1  UNL1       -0.0003
     26 C         141.7781  142.7829  160.5408 C.ar    1  UNL1       -0.0033
     27 C         140.4915  143.5542  160.5370 C.ar    1  UNL1       -0.0097
     28 C         139.3475  143.1088  161.3989 C.ar    1  UNL1       -0.0033
     29 C         139.4900  141.8921  162.2646 C.ar    1  UNL1       -0.0003
     30 C         140.3491  144.7708  159.6714 C.3     1  UNL1        0.0981
     31 C         140.3160  145.6304  158.4426 C.3     1  UNL1        0.0196
     32 C         140.6145  144.1652  158.3250 C.3     1  UNL1        0.0196
     33 C         140.0341  145.7991  160.7170 C.1     1  UNL1        0.0752
     34 N         139.7191  146.8274  161.7627 N.1     1  UNL1       -0.1956
@<TRIPOS>BOND
     1    20    21    1
     2    21    22    2
     3    21    23    2
     4    21    12    1
     5    12    13    1
     6    13    14    1
     7    14    15    1
     8    15    16   am
     9    16    17    2
    10    16     1    1
    11     1     2   ar
    12     2     3   ar
    13     3     4   ar
    14     4     5   ar
    15     5     6   ar
    16     6     7   ar
    17     7     8    1
    18     7     9   ar
    19     9    10   ar
    20    10    11   ar
    21    11    24    1
    22    24    25   ar
    23    25    26   ar
    24    26    27   ar
    25    27    30    1
    26    30    33    1
    27    33    34    3
    28    30    31    1
    29    31    32    1
    30    27    28   ar
    31    28    29   ar
    32    15    18    1
    33    18    19    1
    34    19    12    1
    35    11     1   ar
    36    29    24   ar
    37    10     4   ar
    38    32    30    1
@<TRIPOS>MOLECULE
*****
 34 38 0 0 0
SMALL
GASTEIGER

@<TRIPOS>ATOM
      1 C         140.4771  139.1427  159.2768 C.ar    1  UNL1        0.0727
      2 C         139.7424  138.3338  158.2492 C.ar    1  UNL1        0.1033
      3 N         139.1109  139.0137  157.0707 N.ar    1  UNL1       -0.2437
      4 C         139.2141  140.5025  156.9197 C.ar    1  UNL1        0.0815
      5 C         138.5827  141.1824  155.7411 C.ar    1  UNL1        0.0214
      6 C         138.6859  142.6712  155.5901 C.ar    1  UNL1        0.0312
      7 C         139.4206  143.4801  156.6177 C.ar    1  UNL1        0.1402
      8 F         139.5238  144.9689  156.4667 F       1  UNL1       -0.2042
      9 C         140.0521  142.8002  157.7963 C.ar    1  UNL1        0.0311
     10 C         139.9488  141.3114  157.9472 C.ar    1  UNL1        0.0201
     11 C         140.5803  140.6315  159.1258 C.ar    1  UNL1        0.0074
     12 N         139.0109  138.4515  164.4366 N.3     1  UNL1       -0.1559
     13 C         140.3415  137.7754  164.2880 C.3     1  UNL1        0.1169
     14 C         141.0408  137.7791  162.9609 C.3     1  UNL1        0.1129
     15 N         140.4093  138.4590  161.7824 N.am    1  UNL1       -0.2731
     16 C         141.1085  138.4628  160.4554 C.2     1  UNL1        0.2506
     17 O         142.4392  137.7866  160.3069 O.2     1  UNL1       -0.2699
     18 C         139.0786  139.1352  161.9309 C.3     1  UNL1        0.1129
     19 C         138.3794  139.1315  163.2580 C.3     1  UNL1        0.1169
     20 C         137.6124  138.4441  167.0906 C.3     1  UNL1        0.1960
     21 S         138.3116  138.4478  165.7636 S.O2    1  UNL1        0.0458
     22 O         138.4148  136.9522  165.8137 O.2     1  UNL1       -0.1572
     23 O         138.2085  139.9434  165.7134 O.2     1  UNL1       -0.1572
     24 C         141.3150  141.4404  160.1534 C.ar    1  UNL1        0.0002
     25 C         142.7945  141.6513  160.0244 C.ar    1  UNL1       -0.0003
     26 C         143.5292  142.4602  161.0519 C.ar    1  UNL1       -0.0033
     27 C         142.7843  143.0582  162.2085 C.ar    1  UNL1       -0.0097
     28 C         141.3049  142.8473  162.3375 C.ar    1  UNL1       -0.0033
     29 C         140.5702  142.0384  161.3100 C.ar    1  UNL1       -0.0003
     30 C         143.5190  143.8671  163.2361 C.3     1  UNL1        0.0981
     31 C         143.8782  145.0133  164.1346 C.3     1  UNL1        0.0196
     32 C         142.6930  145.1192  163.2214 C.3     1  UNL1        0.0196
     33 C         144.6002  142.8961  163.6078 C.1     1  UNL1        0.0752
     34 N         145.6814  141.9251  163.9794 N.1     1  UNL1       -0.1956
@<TRIPOS>BOND
     1    20    21    1
     2    21    22    2
     3    21    23    2
     4    21    12    1
     5    12    13    1
     6    13    14    1
     7    14    15    1
     8    15    16   am
     9    16    17    2
    10    16     1    1
    11     1     2   ar
    12     2     3   ar
    13     3     4   ar
    14     4     5   ar
    15     5     6   ar
    16     6     7   ar
    17     7     8    1
    18     7     9   ar
    19     9    10   ar
    20    10    11   ar
    21    11    24    1
    22    24    25   ar
    23    25    26   ar
    24    26    27   ar
    25    27    30    1
    26    30    33    1
    27    33    34    3
    28    30    31    1
    29    31    32    1
    30    27    28   ar
    31    28    29   ar
    32    15    18    1
    33    18    19    1
    34    19    12    1
    35    11     1   ar
    36    29    24   ar
    37    10     4   ar
    38    32    30    1
@<TRIPOS>MOLECULE
*****
 34 38 0 0 0
SMALL
GASTEIGER

@<TRIPOS>ATOM
      1 C         138.7137  140.1926  165.9981 C.ar    1  UNL1        0.0727
      2 C         137.8713  139.2522  166.8079 C.ar    1  UNL1        0.1033
      3 N         138.1116  139.1097  168.2816 N.ar    1  UNL1       -0.2437
      4 C         139.1944  139.9077  168.9456 C.ar    1  UNL1        0.0815
      5 C         139.4347  139.7652  170.4193 C.ar    1  UNL1        0.0214
      6 C         140.5175  140.5632  171.0832 C.ar    1  UNL1        0.0312
      7 C         141.3599  141.5036  170.2734 C.ar    1  UNL1        0.1402
      8 F         142.4428  142.3016  170.9374 F       1  UNL1       -0.2042
      9 C         141.1196  141.6461  168.7997 C.ar    1  UNL1        0.0311
     10 C         140.0369  140.8481  168.1358 C.ar    1  UNL1        0.0201
     11 C         139.7965  140.9906  166.6620 C.ar    1  UNL1        0.0074
     12 N         141.3332  138.4775  161.5882 N.3     1  UNL1       -0.1559
     13 C         140.1395  139.2392  161.0931 C.3     1  UNL1        0.1169
     14 C         139.1863  139.8584  162.0719 C.3     1  UNL1        0.1129
     15 N         139.4266  139.7159  163.5456 N.am    1  UNL1       -0.2731
     16 C         138.4734  140.3351  164.5243 C.2     1  UNL1        0.2506
     17 O         137.2797  141.0968  164.0292 O.2     1  UNL1       -0.2699
     18 C         140.6203  138.9542  164.0406 C.3     1  UNL1        0.1129
     19 C         141.5735  138.3350  163.0620 C.3     1  UNL1        0.1169
     20 C         143.2397  137.2391  159.6308 C.3     1  UNL1        0.1960
     21 S         142.2865  137.8583  160.6095 S.O2    1  UNL1        0.0458
     22 O         141.3049  138.0991  159.5011 O.2     1  UNL1       -0.1572
     23 O         143.2680  137.6176  161.7179 O.2     1  UNL1       -0.1572
     24 C         140.6390  141.9310  165.8521 C.ar    1  UNL1        0.0002
     25 C         140.0712  143.2420  165.3947 C.ar    1  UNL1       -0.0003
     26 C         140.9137  144.1824  164.5849 C.ar    1  UNL1       -0.0033
     27 C         142.3239  143.8119  164.2325 C.ar    1  UNL1       -0.0097
     28 C         142.8916  142.5010  164.6899 C.ar    1  UNL1       -0.0033
     29 C         142.0491  141.5606  165.4997 C.ar    1  UNL1       -0.0003
     30 C         143.1664  144.7524  163.4227 C.3     1  UNL1        0.0981
     31 C         144.2014  145.7851  163.0880 C.3     1  UNL1        0.0196
     32 C         144.0136  145.3448  164.5095 C.3     1  UNL1        0.0196
     33 C         142.6118  144.4866  162.0545 C.1     1  UNL1        0.0752
     34 N         142.0573  144.2207  160.6864 N.1     1  UNL1       -0.1956
@<TRIPOS>BOND
     1    20    21    1
     2    21    22    2
     3    21    23    2
     4    21    12    1
     5    12    13    1
     6    13    14    1
     7    14    15    1
     8    15    16   am
     9    16    17    2
    10    16     1    1
    11     1     2   ar
    12     2     3   ar
    13     3     4   ar
    14     4     5   ar
    15     5     6   ar
    16     6     7   ar
    17     7     8    1
    18     7     9   ar
    19     9    10   ar
    20    10    11   ar
    21    11    24    1
    22    24    25   ar
    23    25    26   ar
    24    26    27   ar
    25    27    30    1
    26    30    33    1
    27    33    34    3
    28    30    31    1
    29    31    32    1
    30    27    28   ar
    31    28    29   ar
    32    15    18    1
    33    18    19    1
    34    19    12    1
    35    11     1   ar
    36    29    24   ar
    37    10     4   ar
    38    32    30    1
@<TRIPOS>MOLECULE
*****
 34 38 0 0 0
SMALL
GASTEIGER

@<TRIPOS>ATOM
      1 C         140.6691  140.0610  162.0478 C.ar    1  UNL1        0.0727
      2 C         140.7778  139.1599  163.2420 C.ar    1  UNL1        0.1033
      3 N         141.5412  139.6082  164.4529 N.ar    1  UNL1       -0.2437
      4 C         142.1959  140.9577  164.4695 C.ar    1  UNL1        0.0815
      5 C         142.9593  141.4061  165.6803 C.ar    1  UNL1        0.0214
      6 C         143.6140  142.7555  165.6969 C.ar    1  UNL1        0.0312
      7 C         143.5053  143.6566  164.5027 C.ar    1  UNL1        0.1402
      8 F         144.1601  145.0061  164.5193 F       1  UNL1       -0.2042
      9 C         142.7419  143.2083  163.2919 C.ar    1  UNL1        0.0311
     10 C         142.0872  141.8588  163.2753 C.ar    1  UNL1        0.0201
     11 C         141.3238  141.4104  162.0644 C.ar    1  UNL1        0.0074
     12 N         142.0370  137.4838  157.4940 N.3     1  UNL1       -0.1559
     13 C         140.5631  137.7450  157.3975 C.3     1  UNL1        0.1169
     14 C         139.8526  138.4546  158.5119 C.3     1  UNL1        0.1129
     15 N         140.6161  138.9030  159.7226 N.am    1  UNL1       -0.2731
     16 C         139.9056  139.6125  160.8369 C.2     1  UNL1        0.2506
     17 O         138.4317  139.8738  160.7404 O.2     1  UNL1       -0.2699
     18 C         142.0900  138.6418  159.8191 C.3     1  UNL1        0.1129
     19 C         142.8005  137.9322  158.7049 C.3     1  UNL1        0.1169
     20 C         143.4580  136.0646  155.2654 C.3     1  UNL1        0.1960
     21 S         142.7475  136.7742  156.3797 S.O2    1  UNL1        0.0458
     22 O         143.8525  137.7868  156.4395 O.2     1  UNL1       -0.1572
     23 O         141.6425  135.7616  156.3199 O.2     1  UNL1       -0.1572
     24 C         141.2151  142.3115  160.8702 C.ar    1  UNL1        0.0002
     25 C         140.0675  143.2708  160.7564 C.ar    1  UNL1       -0.0003
     26 C         139.9588  144.1719  159.5622 C.ar    1  UNL1       -0.0033
     27 C         140.9977  144.1137  158.4817 C.ar    1  UNL1       -0.0097
     28 C         142.1452  143.1544  158.5955 C.ar    1  UNL1       -0.0033
     29 C         142.2539  142.2533  159.7897 C.ar    1  UNL1       -0.0003
     30 C         140.8889  145.0148  157.2874 C.3     1  UNL1        0.0981
     31 C         141.1903  146.1310  156.3319 C.3     1  UNL1        0.0196
     32 C         142.0318  145.9473  157.5598 C.3     1  UNL1        0.0196
     33 C         139.7083  144.3953  156.6003 C.1     1  UNL1        0.0752
     34 N         138.5277  143.7758  155.9130 N.1     1  UNL1       -0.1956
@<TRIPOS>BOND
     1    20    21    1
     2    21    22    2
     3    21    23    2
     4    21    12    1
     5    12    13    1
     6    13    14    1
     7    14    15    1
     8    15    16   am
     9    16    17    2
    10    16     1    1
    11     1     2   ar
    12     2     3   ar
    13     3     4   ar
    14     4     5   ar
    15     5     6   ar
    16     6     7   ar
    17     7     8    1
    18     7     9   ar
    19     9    10   ar
    20    10    11   ar
    21    11    24    1
    22    24    25   ar
    23    25    26   ar
    24    26    27   ar
    25    27    30    1
    26    30    33    1
    27    33    34    3
    28    30    31    1
    29    31    32    1
    30    27    28   ar
    31    28    29   ar
    32    15    18    1
    33    18    19    1
    34    19    12    1
    35    11     1   ar
    36    29    24   ar
    37    10     4   ar
    38    32    30    1
@<TRIPOS>MOLECULE
*****
 34 38 0 0 0
SMALL
GASTEIGER

@<TRIPOS>ATOM
      1 C         140.2567  142.6624  160.7729 C.ar    1  UNL1        0.0727
      2 C         139.3851  143.0568  161.9283 C.ar    1  UNL1        0.1033
      3 N         139.9829  143.2336  163.2926 N.ar    1  UNL1       -0.2437
      4 C         141.4524  143.0161  163.5016 C.ar    1  UNL1        0.0815
      5 C         142.0502  143.1929  164.8658 C.ar    1  UNL1        0.0214
      6 C         143.5195  142.9753  165.0748 C.ar    1  UNL1        0.0312
      7 C         144.3910  142.5809  163.9194 C.ar    1  UNL1        0.1402
      8 F         145.8604  142.3633  164.1284 F       1  UNL1       -0.2042
      9 C         143.7932  142.4041  162.5551 C.ar    1  UNL1        0.0311
     10 C         142.3239  142.6216  162.3462 C.ar    1  UNL1        0.0201
     11 C         141.7260  142.4448  160.9818 C.ar    1  UNL1        0.0074
     12 N         139.6500  145.9143  156.4942 N.3     1  UNL1       -0.1559
     13 C         139.0551  144.5946  156.1014 C.3     1  UNL1        0.1169
     14 C         139.0580  143.4516  157.0729 C.3     1  UNL1        0.1129
     15 N         139.6559  143.6285  158.4372 N.am    1  UNL1       -0.2731
     16 C         139.6588  142.4856  159.4086 C.2     1  UNL1        0.2506
     17 O         139.0639  141.1658  159.0158 O.2     1  UNL1       -0.2699
     18 C         140.2508  144.9482  158.8300 C.3     1  UNL1        0.1129
     19 C         140.2479  146.0911  157.8585 C.3     1  UNL1        0.1169
     20 C         139.6442  148.2001  154.5513 C.3     1  UNL1        0.1960
     21 S         139.6471  147.0572  155.5228 S.O2    1  UNL1        0.0458
     22 O         138.8420  147.8757  156.4881 O.2     1  UNL1       -0.1572
     23 O         140.4521  146.2387  154.5574 O.2     1  UNL1       -0.1572
     24 C         142.5975  142.0504  159.8265 C.ar    1  UNL1        0.0002
     25 C         142.8329  140.5998  159.5255 C.ar    1  UNL1       -0.0003
     26 C         143.7044  140.2054  158.3701 C.ar    1  UNL1       -0.0033
     27 C         144.3406  141.2616  157.5157 C.ar    1  UNL1       -0.0097
     28 C         144.1052  142.7121  157.8167 C.ar    1  UNL1       -0.0033
     29 C         143.2337  143.1065  158.9721 C.ar    1  UNL1       -0.0003
     30 C         145.2121  140.8672  156.3604 C.3     1  UNL1        0.0981
     31 C         145.6806  140.1519  155.1280 C.3     1  UNL1        0.0196
     32 C         144.3542  139.8061  155.7372 C.3     1  UNL1        0.0196
     33 C         146.3727  141.7912  156.5822 C.1     1  UNL1        0.0752
     34 N         147.5333  142.7152  156.8039 N.1     1  UNL1       -0.1956
@<TRIPOS>BOND
     1    20    21    1
     2    21    22    2
     3    21    23    2
     4    21    12    1
     5    12    13    1
     6    13    14    1
     7    14    15    1
     8    15    16   am
     9    16    17    2
    10    16     1    1
    11     1     2   ar
    12     2     3   ar
    13     3     4   ar
    14     4     5   ar
    15     5     6   ar
    16     6     7   ar
    17     7     8    1
    18     7     9   ar
    19     9    10   ar
    20    10    11   ar
    21    11    24    1
    22    24    25   ar
    23    25    26   ar
    24    26    27   ar
    25    27    30    1
    26    30    33    1
    27    33    34    3
    28    30    31    1
    29    31    32    1
    30    27    28   ar
    31    28    29   ar
    32    15    18    1
    33    18    19    1
    34    19    12    1
    35    11     1   ar
    36    29    24   ar
    37    10     4   ar
    38    32    30    1
@<TRIPOS>MOLECULE
*****
 34 38 0 0 0
SMALL
GASTEIGER

@<TRIPOS>ATOM
      1 C         139.1521  139.4396  167.2571 C.ar    1  UNL1        0.0727
      2 C         138.2755  139.5471  168.4695 C.ar    1  UNL1        0.1033
      3 N         138.8002  140.1884  169.7198 N.ar    1  UNL1       -0.2437
      4 C         140.2015  140.7222  169.7578 C.ar    1  UNL1        0.0815
      5 C         140.7262  141.3635  171.0082 C.ar    1  UNL1        0.0214
      6 C         142.1274  141.8972  171.0461 C.ar    1  UNL1        0.0312
      7 C         143.0041  141.7897  169.8337 C.ar    1  UNL1        0.1402
      8 F         144.4054  142.3234  169.8717 F       1  UNL1       -0.2042
      9 C         142.4794  141.1484  168.5834 C.ar    1  UNL1        0.0311
     10 C         141.0781  140.6146  168.5454 C.ar    1  UNL1        0.0201
     11 C         140.5534  139.9733  167.2950 C.ar    1  UNL1        0.0074
     12 N         138.3767  141.1747  162.1936 N.3     1  UNL1       -0.1559
     13 C         137.9356  139.7412  162.2143 C.3     1  UNL1        0.1169
     14 C         138.0192  138.9490  163.4854 C.3     1  UNL1        0.1129
     15 N         138.5439  139.5904  164.7357 N.am    1  UNL1       -0.2731
     16 C         138.6274  138.7982  166.0067 C.2     1  UNL1        0.2506
     17 O         138.1862  137.3647  166.0273 O.2     1  UNL1       -0.2699
     18 C         138.9850  141.0239  164.7150 C.3     1  UNL1        0.1129
     19 C         138.9015  141.8161  163.4440 C.3     1  UNL1        0.1169
     20 C         138.2096  142.7591  159.6517 C.3     1  UNL1        0.1960
     21 S         138.2932  141.9669  160.9227 S.O2    1  UNL1        0.0458
     22 O         138.7872  140.7798  160.1503 O.2     1  UNL1       -0.1572
     23 O         137.7991  143.1540  161.6950 O.2     1  UNL1       -0.1572
     24 C         141.4300  139.8657  166.0826 C.ar    1  UNL1        0.0002
     25 C         141.8217  141.1017  165.3282 C.ar    1  UNL1       -0.0003
     26 C         142.6983  140.9942  164.1158 C.ar    1  UNL1       -0.0033
     27 C         143.1833  139.6506  163.6578 C.ar    1  UNL1       -0.0097
     28 C         142.7916  138.4147  164.4121 C.ar    1  UNL1       -0.0033
     29 C         141.9150  138.5223  165.6245 C.ar    1  UNL1       -0.0003
     30 C         144.0599  139.5431  162.4453 C.3     1  UNL1        0.0981
     31 C         144.5938  139.0568  161.1307 C.3     1  UNL1        0.0196
     32 C         143.3775  138.4152  161.7297 C.3     1  UNL1        0.0196
     33 C         145.0468  140.6336  162.7399 C.1     1  UNL1        0.0752
     34 N         146.0338  141.7241  163.0344 N.1     1  UNL1       -0.1956
@<TRIPOS>BOND
     1    20    21    1
     2    21    22    2
     3    21    23    2
     4    21    12    1
     5    12    13    1
     6    13    14    1
     7    14    15    1
     8    15    16   am
     9    16    17    2
    10    16     1    1
    11     1     2   ar
    12     2     3   ar
    13     3     4   ar
    14     4     5   ar
    15     5     6   ar
    16     6     7   ar
    17     7     8    1
    18     7     9   ar
    19     9    10   ar
    20    10    11   ar
    21    11    24    1
    22    24    25   ar
    23    25    26   ar
    24    26    27   ar
    25    27    30    1
    26    30    33    1
    27    33    34    3
    28    30    31    1
    29    31    32    1
    30    27    28   ar
    31    28    29   ar
    32    15    18    1
    33    18    19    1
    34    19    12    1
    35    11     1   ar
    36    29    24   ar
    37    10     4   ar
    38    32    30    1
@<TRIPOS>MOLECULE
*****
 34 38 0 0 0
SMALL
GASTEIGER

@<TRIPOS>ATOM
      1 C         141.5590  141.1500  157.1718 C.ar    1  UNL1        0.0727
      2 C         142.1990  141.4381  155.8461 C.ar    1  UNL1        0.1033
      3 N         142.9373  140.3541  155.1183 N.ar    1  UNL1       -0.2437
      4 C         143.0355  138.9818  155.7161 C.ar    1  UNL1        0.0815
      5 C         143.7738  137.8978  154.9883 C.ar    1  UNL1        0.0214
      6 C         143.8720  136.5256  155.5862 C.ar    1  UNL1        0.0312
      7 C         143.2319  136.2375  156.9118 C.ar    1  UNL1        0.1402
      8 F         143.3301  134.8652  157.5096 F       1  UNL1       -0.2042
      9 C         142.4937  137.3215  157.6396 C.ar    1  UNL1        0.0311
     10 C         142.3955  138.6937  157.0418 C.ar    1  UNL1        0.0201
     11 C         141.6572  139.7779  157.7696 C.ar    1  UNL1        0.0074
     12 N         142.6410  144.1374  161.5484 N.3     1  UNL1       -0.1559
     13 C         141.2960  144.5871  161.0599 C.3     1  UNL1        0.1169
     14 C         140.6892  143.9527  159.8436 C.3     1  UNL1        0.1129
     15 N         141.4275  142.8686  159.1159 N.am    1  UNL1       -0.2731
     16 C         140.8207  142.2342  157.8996 C.2     1  UNL1        0.2506
     17 O         139.4757  142.6839  157.4111 O.2     1  UNL1       -0.2699
     18 C         142.7725  142.4189  159.6044 C.3     1  UNL1        0.1129
     19 C         143.3793  143.0533  160.8206 C.3     1  UNL1        0.1169
     20 C         143.8546  145.4062  163.9809 C.3     1  UNL1        0.1960
     21 S         143.2478  144.7718  162.7647 S.O2    1  UNL1        0.0458
     22 O         141.8995  145.2925  163.1657 O.2     1  UNL1       -0.1572
     23 O         144.5961  144.2511  162.3636 O.2     1  UNL1       -0.1572
     24 C         141.0171  139.4897  159.0952 C.ar    1  UNL1        0.0002
     25 C         141.8339  139.5526  160.3519 C.ar    1  UNL1       -0.0003
     26 C         141.1938  139.2644  161.6775 C.ar    1  UNL1       -0.0033
     27 C         139.7370  138.9135  161.7465 C.ar    1  UNL1       -0.0097
     28 C         138.9204  138.8507  160.4899 C.ar    1  UNL1       -0.0033
     29 C         139.5604  139.1388  159.1643 C.ar    1  UNL1       -0.0003
     30 C         139.0970  138.6254  163.0722 C.3     1  UNL1        0.0981
     31 C         138.7604  137.9165  164.3505 C.3     1  UNL1        0.0196
     32 C         139.7484  137.3137  163.3964 C.3     1  UNL1        0.0196
     33 C         138.2233  139.8370  163.2084 C.1     1  UNL1        0.0752
     34 N         137.3495  141.0486  163.3447 N.1     1  UNL1       -0.1956
@<TRIPOS>BOND
     1    20    21    1
     2    21    22    2
     3    21    23    2
     4    21    12    1
     5    12    13    1
     6    13    14    1
     7    14    15    1
     8    15    16   am
     9    16    17    2
    10    16     1    1
    11     1     2   ar
    12     2     3   ar
    13     3     4   ar
    14     4     5   ar
    15     5     6   ar
    16     6     7   ar
    17     7     8    1
    18     7     9   ar
    19     9    10   ar
    20    10    11   ar
    21    11    24    1
    22    24    25   ar
    23    25    26   ar
    24    26    27   ar
    25    27    30    1
    26    30    33    1
    27    33    34    3
    28    30    31    1
    29    31    32    1
    30    27    28   ar
    31    28    29   ar
    32    15    18    1
    33    18    19    1
    34    19    12    1
    35    11     1   ar
    36    29    24   ar
    37    10     4   ar
    38    32    30    1
@<TRIPOS>MOLECULE
*****
 34 38 0 0 0
SMALL
GASTEIGER

@<TRIPOS>ATOM
      1 C         144.0703  142.6176  159.3198 C.ar    1  UNL1        0.0727
      2 C         144.7987  142.4670  160.6224 C.ar    1  UNL1        0.1033
      3 N         144.2546  143.1081  161.8645 N.ar    1  UNL1       -0.2437
      4 C         142.9820  143.9000  161.8040 C.ar    1  UNL1        0.0815
      5 C         142.4378  144.5411  163.0461 C.ar    1  UNL1        0.0214
      6 C         141.1653  145.3329  162.9855 C.ar    1  UNL1        0.0312
      7 C         140.4369  145.4835  161.6829 C.ar    1  UNL1        0.1402
      8 F         139.1644  146.2754  161.6224 F       1  UNL1       -0.2042
      9 C         140.9811  144.8424  160.4408 C.ar    1  UNL1        0.0311
     10 C         142.2536  144.0506  160.5014 C.ar    1  UNL1        0.0201
     11 C         142.7978  143.4094  159.2593 C.ar    1  UNL1        0.0074
     12 N         143.2199  137.8727  156.8677 N.3     1  UNL1       -0.1559
     13 C         144.2290  138.5994  156.0290 C.3     1  UNL1        0.1169
     14 C         144.6939  139.9674  156.4323 C.3     1  UNL1        0.1129
     15 N         144.1497  140.6085  157.6744 N.am    1  UNL1       -0.2731
     16 C         144.6146  141.9764  158.0777 C.2     1  UNL1        0.2506
     17 O         145.6237  142.7032  157.2390 O.2     1  UNL1       -0.2699
     18 C         143.1406  139.8818  158.5131 C.3     1  UNL1        0.1129
     19 C         142.6757  138.5139  158.1098 C.3     1  UNL1        0.1169
     20 C         142.2901  135.1369  156.0611 C.3     1  UNL1        0.1960
     21 S         142.7550  136.5048  156.4644 S.O2    1  UNL1        0.0458
     22 O         144.1618  136.1344  156.0989 O.2     1  UNL1       -0.1572
     23 O         141.3482  136.8751  156.8299 O.2     1  UNL1       -0.1572
     24 C         142.0695  143.5600  157.9567 C.ar    1  UNL1        0.0002
     25 C         141.0302  142.5546  157.5578 C.ar    1  UNL1       -0.0003
     26 C         140.3018  142.7052  156.2552 C.ar    1  UNL1       -0.0033
     27 C         140.6127  143.8613  155.3514 C.ar    1  UNL1       -0.0097
     28 C         141.6520  144.8668  155.7503 C.ar    1  UNL1       -0.0033
     29 C         142.3803  144.7161  157.0529 C.ar    1  UNL1       -0.0003
     30 C         139.8844  144.0120  154.0488 C.3     1  UNL1        0.0981
     31 C         139.5940  143.9355  152.5792 C.3     1  UNL1        0.0196
     32 C         140.8927  143.4102  153.1155 C.3     1  UNL1        0.0196
     33 C         138.6231  144.6662  154.5297 C.1     1  UNL1        0.0752
     34 N         137.3618  145.3203  155.0106 N.1     1  UNL1       -0.1956
@<TRIPOS>BOND
     1    20    21    1
     2    21    22    2
     3    21    23    2
     4    21    12    1
     5    12    13    1
     6    13    14    1
     7    14    15    1
     8    15    16   am
     9    16    17    2
    10    16     1    1
    11     1     2   ar
    12     2     3   ar
    13     3     4   ar
    14     4     5   ar
    15     5     6   ar
    16     6     7   ar
    17     7     8    1
    18     7     9   ar
    19     9    10   ar
    20    10    11   ar
    21    11    24    1
    22    24    25   ar
    23    25    26   ar
    24    26    27   ar
    25    27    30    1
    26    30    33    1
    27    33    34    3
    28    30    31    1
    29    31    32    1
    30    27    28   ar
    31    28    29   ar
    32    15    18    1
    33    18    19    1
    34    19    12    1
    35    11     1   ar
    36    29    24   ar
    37    10     4   ar
    38    32    30    1
