@<TRIPOS>MOLECULE
*****
 30 34 0 0 0
SMALL
GASTEIGER

@<TRIPOS>ATOM
      1 N         138.7619  140.3406  162.4841 N.3     1  UNL1       -0.2704
      2 C         140.2516  140.4711  162.3684 C.3     1  UNL1        0.0739
      3 C         141.1073  140.4153  163.5992 C.3     1  UNL1        0.0376
      4 C         140.4730  140.2288  164.9457 C.3     1  UNL1        0.0841
      5 C         138.9831  140.0983  165.0613 C.3     1  UNL1        0.0376
      6 C         138.1276  140.1541  163.8306 C.3     1  UNL1        0.0739
      7 N         141.3286  140.1729  166.1765 N.am    1  UNL1       -0.2423
      8 C         142.3743  139.1405  166.4772 C.2     1  UNL1        0.3309
      9 O         142.7481  137.9826  165.5999 O.2     1  UNL1       -0.2501
     10 N         142.9806  139.4691  167.8092 N.am    1  UNL1       -0.1647
     11 C         142.3096  140.7048  168.3318 C.2     1  UNL1        0.0706
     12 C         142.4965  141.4899  169.5961 C.3     1  UNL1        0.0705
     13 C         141.6623  142.7102  169.8513 C.2     1  UNL1       -0.0199
     14 C         140.6412  143.1452  168.8422 C.2     1  UNL1       -0.0029
     15 C         140.4544  142.3600  167.5779 C.2     1  UNL1        0.0156
     16 C         141.2886  141.1397  167.3227 C.2     1  UNL1        0.0668
     17 C         137.9063  140.3964  161.2533 C.3     1  UNL1        0.1072
     18 C         138.2742  141.3140  160.1252 C.3     1  UNL1        0.1890
     19 O         138.2189  142.8005  160.3189 O.3     1  UNL1       -0.2574
     20 O         140.8304  143.3689  158.9563 O.2     1  UNL1       -0.2724
     21 C         140.6222  143.7853  160.3822 C.2     1  UNL1        0.2520
     22 C         141.7198  144.4860  161.1269 C.3     1  UNL1        0.0924
     23 C         141.5116  144.9024  162.5527 C.3     1  UNL1        0.0373
     24 C         140.2058  144.6182  163.2341 C.ar    1  UNL1       -0.0057
     25 C         139.9976  145.0346  164.6600 C.ar    1  UNL1       -0.0030
     26 C         138.6919  144.7504  165.3413 C.ar    1  UNL1       -0.0002
     27 C         137.5943  144.0498  164.5967 C.ar    1  UNL1        0.0013
     28 C         137.8025  143.6334  163.1708 C.ar    1  UNL1        0.0169
     29 C         139.1082  143.9176  162.4895 C.ar    1  UNL1        0.0771
     30 N         139.3164  143.5011  161.0635 N.am    1  UNL1       -0.1461
@<TRIPOS>BOND
     1    20    21    2
     2    21    22    1
     3    22    23    1
     4    23    24    1
     5    24    25   ar
     6    25    26   ar
     7    26    27   ar
     8    27    28   ar
     9    28    29   ar
    10    29    30    1
    11    30    19    1
    12    19    18    1
    13    18    17    1
    14    17     1    1
    15     1     2    1
    16     2     3    1
    17     3     4    1
    18     4     7    1
    19     7     8   am
    20     8     9    2
    21     8    10    1
    22    10    11    2
    23    11    12    1
    24    12    13    1
    25    13    14    2
    26    14    15    1
    27    15    16    2
    28     4     5    1
    29     5     6    1
    30    30    21   am
    31     6     1    1
    32    29    24   ar
    33    16     7    1
    34    16    11    1
@<TRIPOS>MOLECULE
*****
 30 34 0 0 0
SMALL
GASTEIGER

@<TRIPOS>ATOM
      1 N         141.2163  140.0798  162.5863 N.3     1  UNL1       -0.2704
      2 C         140.1313  139.7686  163.5742 C.3     1  UNL1        0.0739
      3 C         140.4126  139.8445  165.0457 C.3     1  UNL1        0.0376
      4 C         141.7788  140.2316  165.5292 C.3     1  UNL1        0.0841
      5 C         142.8637  140.5427  164.5412 C.3     1  UNL1        0.0376
      6 C         142.5825  140.4668  163.0698 C.3     1  UNL1        0.0739
      7 N         142.0600  140.3075  167.0006 N.am    1  UNL1       -0.2423
      8 C         142.9120  139.3548  167.7857 C.2     1  UNL1        0.3309
      9 O         143.6324  138.1589  167.2372 O.2     1  UNL1       -0.2501
     10 N         142.9172  139.8079  169.2156 N.am    1  UNL1       -0.1647
     11 C         142.0684  141.0408  169.3143 C.2     1  UNL1        0.0706
     12 C         141.7096  141.9220  170.4738 C.3     1  UNL1        0.0705
     13 C         140.8208  143.1122  170.2644 C.2     1  UNL1       -0.0199
     14 C         140.2910  143.4209  168.8954 C.2     1  UNL1       -0.0029
     15 C         140.6499  142.5396  167.7359 C.2     1  UNL1        0.0156
     16 C         141.5386  141.3495  167.9453 C.2     1  UNL1        0.0668
     17 C         140.9350  140.0038  161.1149 C.3     1  UNL1        0.1072
     18 C         141.3622  141.1221  160.2110 C.3     1  UNL1        0.1890
     19 O         140.7492  142.4830  160.3603 O.3     1  UNL1       -0.2574
     20 O         143.4951  143.6450  160.6913 O.2     1  UNL1       -0.2724
     21 C         142.4417  143.9027  161.7277 C.2     1  UNL1        0.2520
     22 C         142.7612  144.7414  162.9295 C.3     1  UNL1        0.0924
     23 C         141.7079  144.9992  163.9658 C.3     1  UNL1        0.0373
     24 C         140.3348  144.4181  163.8003 C.ar    1  UNL1       -0.0057
     25 C         139.2815  144.6758  164.8366 C.ar    1  UNL1       -0.0030
     26 C         137.9086  144.0948  164.6711 C.ar    1  UNL1       -0.0002
     27 C         137.5890  143.2561  163.4692 C.ar    1  UNL1        0.0013
     28 C         138.6424  142.9984  162.4329 C.ar    1  UNL1        0.0169
     29 C         140.0153  143.5794  162.5985 C.ar    1  UNL1        0.0771
     30 N         141.0687  143.3217  161.5621 N.am    1  UNL1       -0.1461
@<TRIPOS>BOND
     1    20    21    2
     2    21    22    1
     3    22    23    1
     4    23    24    1
     5    24    25   ar
     6    25    26   ar
     7    26    27   ar
     8    27    28   ar
     9    28    29   ar
    10    29    30    1
    11    30    19    1
    12    19    18    1
    13    18    17    1
    14    17     1    1
    15     1     2    1
    16     2     3    1
    17     3     4    1
    18     4     7    1
    19     7     8   am
    20     8     9    2
    21     8    10    1
    22    10    11    2
    23    11    12    1
    24    12    13    1
    25    13    14    2
    26    14    15    1
    27    15    16    2
    28     4     5    1
    29     5     6    1
    30    30    21   am
    31     6     1    1
    32    29    24   ar
    33    16     7    1
    34    16    11    1
@<TRIPOS>MOLECULE
*****
 30 34 0 0 0
SMALL
GASTEIGER

@<TRIPOS>ATOM
      1 N         139.9500  144.0173  162.8600 N.3     1  UNL1       -0.2704
      2 C         140.1129  142.5405  162.6545 C.3     1  UNL1        0.0739
      3 C         140.1718  141.6206  163.8379 C.3     1  UNL1        0.0376
      4 C         140.0679  142.1776  165.2268 C.3     1  UNL1        0.0841
      5 C         139.9050  143.6546  165.4322 C.3     1  UNL1        0.0376
      6 C         139.8461  144.5744  164.2488 C.3     1  UNL1        0.0739
      7 N         140.1268  141.2578  166.4101 N.am    1  UNL1       -0.2423
      8 C         139.1715  140.1400  166.7064 C.2     1  UNL1        0.3309
      9 O         137.9895  139.7458  165.8713 O.2     1  UNL1       -0.2501
     10 N         139.6057  139.4856  167.9844 N.am    1  UNL1       -0.1647
     11 C         140.8294  140.1990  168.4780 C.2     1  UNL1        0.0706
     12 C         141.6919  139.9927  169.6877 C.3     1  UNL1        0.0705
     13 C         142.8767  140.8817  169.9245 C.2     1  UNL1       -0.0199
     14 C         143.1988  141.9771  168.9515 C.2     1  UNL1       -0.0029
     15 C         142.3362  142.1833  167.7418 C.2     1  UNL1        0.0156
     16 C         141.1515  141.2943  167.5050 C.2     1  UNL1        0.0668
     17 C         139.8911  144.9372  161.6766 C.3     1  UNL1        0.1072
     18 C         140.7536  144.6736  160.4781 C.3     1  UNL1        0.1890
     19 O         142.2470  144.7505  160.5973 O.3     1  UNL1       -0.2574
     20 O         142.6709  142.3365  158.8671 O.2     1  UNL1       -0.2724
     21 C         143.2307  142.3698  160.2584 C.2     1  UNL1        0.2520
     22 C         144.0025  141.1962  160.7845 C.3     1  UNL1        0.0924
     23 C         144.5623  141.2294  162.1757 C.3     1  UNL1        0.0373
     24 C         144.3504  142.4364  163.0408 C.ar    1  UNL1       -0.0057
     25 C         144.9102  142.4697  164.4320 C.ar    1  UNL1       -0.0030
     26 C         144.6982  143.6766  165.2971 C.ar    1  UNL1       -0.0002
     27 C         143.9265  144.8503  164.7709 C.ar    1  UNL1        0.0013
     28 C         143.3666  144.8170  163.3797 C.ar    1  UNL1        0.0169
     29 C         143.5786  143.6101  162.5147 C.ar    1  UNL1        0.0771
     30 N         143.0188  143.5768  161.1234 N.am    1  UNL1       -0.1461
@<TRIPOS>BOND
     1    20    21    2
     2    21    22    1
     3    22    23    1
     4    23    24    1
     5    24    25   ar
     6    25    26   ar
     7    26    27   ar
     8    27    28   ar
     9    28    29   ar
    10    29    30    1
    11    30    19    1
    12    19    18    1
    13    18    17    1
    14    17     1    1
    15     1     2    1
    16     2     3    1
    17     3     4    1
    18     4     7    1
    19     7     8   am
    20     8     9    2
    21     8    10    1
    22    10    11    2
    23    11    12    1
    24    12    13    1
    25    13    14    2
    26    14    15    1
    27    15    16    2
    28     4     5    1
    29     5     6    1
    30    30    21   am
    31     6     1    1
    32    29    24   ar
    33    16     7    1
    34    16    11    1
@<TRIPOS>MOLECULE
*****
 30 34 0 0 0
SMALL
GASTEIGER

@<TRIPOS>ATOM
      1 N         141.3611  143.0160  161.6925 N.3     1  UNL1       -0.2704
      2 C         141.2765  144.1549  162.6649 C.3     1  UNL1        0.0739
      3 C         141.6190  143.9354  164.1087 C.3     1  UNL1        0.0376
      4 C         142.0459  142.5769  164.5801 C.3     1  UNL1        0.0841
      5 C         142.1305  141.4379  163.6076 C.3     1  UNL1        0.0376
      6 C         141.7881  141.6575  162.1638 C.3     1  UNL1        0.0739
      7 N         142.3883  142.3574  166.0239 N.am    1  UNL1       -0.2423
      8 C         143.5942  142.8952  166.7357 C.2     1  UNL1        0.3309
      9 O         144.6693  143.7470  166.1287 O.2     1  UNL1       -0.2501
     10 N         143.5361  142.4317  168.1610 N.am    1  UNL1       -0.1647
     11 C         142.2944  141.6073  168.3302 C.2     1  UNL1        0.0706
     12 C         141.7181  140.8927  169.5164 C.3     1  UNL1        0.0705
     13 C         140.4322  140.1319  169.3817 C.2     1  UNL1       -0.0199
     14 C         139.7228  140.0860  168.0608 C.2     1  UNL1       -0.0029
     15 C         140.2993  140.8008  166.8746 C.2     1  UNL1        0.0156
     16 C         141.5850  141.5614  167.0094 C.2     1  UNL1        0.0668
     17 C         141.0187  143.2355  160.2487 C.3     1  UNL1        0.1072
     18 C         139.6700  143.7724  159.8710 C.3     1  UNL1        0.1890
     19 O         138.4335  142.9842  160.1875 O.3     1  UNL1       -0.2574
     20 O         137.7021  144.7528  162.4978 O.2     1  UNL1       -0.2724
     21 C         137.8837  143.2789  162.7096 C.2     1  UNL1        0.2520
     22 C         137.6995  142.6893  164.0765 C.3     1  UNL1        0.0924
     23 C         137.8811  141.2156  164.2883 C.3     1  UNL1        0.0373
     24 C         138.2468  140.3312  163.1332 C.ar    1  UNL1       -0.0057
     25 C         138.4284  138.8574  163.3450 C.ar    1  UNL1       -0.0030
     26 C         138.7941  137.9732  162.1899 C.ar    1  UNL1       -0.0002
     27 C         138.9782  138.5628  160.8229 C.ar    1  UNL1        0.0013
     28 C         138.7967  140.0366  160.6111 C.ar    1  UNL1        0.0169
     29 C         138.4310  140.9208  161.7662 C.ar    1  UNL1        0.0771
     30 N         138.2494  142.3947  161.5544 N.am    1  UNL1       -0.1461
@<TRIPOS>BOND
     1    20    21    2
     2    21    22    1
     3    22    23    1
     4    23    24    1
     5    24    25   ar
     6    25    26   ar
     7    26    27   ar
     8    27    28   ar
     9    28    29   ar
    10    29    30    1
    11    30    19    1
    12    19    18    1
    13    18    17    1
    14    17     1    1
    15     1     2    1
    16     2     3    1
    17     3     4    1
    18     4     7    1
    19     7     8   am
    20     8     9    2
    21     8    10    1
    22    10    11    2
    23    11    12    1
    24    12    13    1
    25    13    14    2
    26    14    15    1
    27    15    16    2
    28     4     5    1
    29     5     6    1
    30    30    21   am
    31     6     1    1
    32    29    24   ar
    33    16     7    1
    34    16    11    1
@<TRIPOS>MOLECULE
*****
 30 34 0 0 0
SMALL
GASTEIGER

@<TRIPOS>ATOM
      1 N         141.2444  138.6356  162.3282 N.3     1  UNL1       -0.2704
      2 C         141.3615  137.6163  163.4223 C.3     1  UNL1        0.0739
      3 C         141.0204  137.9894  164.8346 C.3     1  UNL1        0.0376
      4 C         140.5621  139.3818  165.1527 C.3     1  UNL1        0.0841
      5 C         140.4450  140.4012  164.0585 C.3     1  UNL1        0.0376
      6 C         140.7862  140.0281  162.6462 C.3     1  UNL1        0.0739
      7 N         140.2210  139.7549  166.5649 N.am    1  UNL1       -0.2423
      8 C         138.9953  139.3295  167.3177 C.2     1  UNL1        0.3309
      9 O         137.8956  138.4562  166.7904 O.2     1  UNL1       -0.2501
     10 N         139.0624  139.9306  168.6903 N.am    1  UNL1       -0.1647
     11 C         140.3296  140.7276  168.7859 C.2     1  UNL1        0.0706
     12 C         140.9239  141.5381  169.8994 C.3     1  UNL1        0.0705
     13 C         142.2344  142.2401  169.6993 C.2     1  UNL1       -0.0199
     14 C         142.9504  142.1315  168.3856 C.2     1  UNL1       -0.0029
     15 C         142.3560  141.3210  167.2722 C.2     1  UNL1        0.0156
     16 C         141.0456  140.6190  167.4723 C.2     1  UNL1        0.0668
     17 C         141.5855  138.2625  160.9160 C.3     1  UNL1        0.1072
     18 C         142.8534  137.5165  160.6227 C.3     1  UNL1        0.1890
     19 O         144.1654  138.2436  160.6094 O.3     1  UNL1       -0.2574
     20 O         143.8647  139.6844  157.9953 O.2     1  UNL1       -0.2724
     21 C         144.0414  140.4633  159.2651 C.2     1  UNL1        0.2520
     22 C         144.0676  141.9626  159.2277 C.3     1  UNL1        0.0924
     23 C         144.2442  142.7415  160.4974 C.3     1  UNL1        0.0373
     24 C         144.3946  142.0211  161.8045 C.ar    1  UNL1       -0.0057
     25 C         144.5712  142.8000  163.0742 C.ar    1  UNL1       -0.0030
     26 C         144.7216  142.0795  164.3812 C.ar    1  UNL1       -0.0002
     27 C         144.6953  140.5802  164.4185 C.ar    1  UNL1        0.0013
     28 C         144.5187  139.8013  163.1489 C.ar    1  UNL1        0.0169
     29 C         144.3683  140.5218  161.8418 C.ar    1  UNL1        0.0771
     30 N         144.1917  139.7429  160.5721 N.am    1  UNL1       -0.1461
@<TRIPOS>BOND
     1    20    21    2
     2    21    22    1
     3    22    23    1
     4    23    24    1
     5    24    25   ar
     6    25    26   ar
     7    26    27   ar
     8    27    28   ar
     9    28    29   ar
    10    29    30    1
    11    30    19    1
    12    19    18    1
    13    18    17    1
    14    17     1    1
    15     1     2    1
    16     2     3    1
    17     3     4    1
    18     4     7    1
    19     7     8   am
    20     8     9    2
    21     8    10    1
    22    10    11    2
    23    11    12    1
    24    12    13    1
    25    13    14    2
    26    14    15    1
    27    15    16    2
    28     4     5    1
    29     5     6    1
    30    30    21   am
    31     6     1    1
    32    29    24   ar
    33    16     7    1
    34    16    11    1
@<TRIPOS>MOLECULE
*****
 30 34 0 0 0
SMALL
GASTEIGER

@<TRIPOS>ATOM
      1 N         143.0085  139.6783  162.7662 N.3     1  UNL1       -0.2704
      2 C         143.5422  139.1547  164.0666 C.3     1  UNL1        0.0739
      3 C         142.7120  139.2529  165.3121 C.3     1  UNL1        0.0376
      4 C         141.3481  139.8747  165.2571 C.3     1  UNL1        0.0841
      5 C         140.8143  140.3984  163.9567 C.3     1  UNL1        0.0376
      6 C         141.6445  140.3002  162.7113 C.3     1  UNL1        0.0739
      7 N         140.5179  139.9729  166.5025 N.am    1  UNL1       -0.2423
      8 C         139.2775  139.1835  166.7998 C.2     1  UNL1        0.3309
      9 O         138.6496  138.1573  165.9039 O.2     1  UNL1       -0.2501
     10 N         138.7753  139.6004  168.1503 N.am    1  UNL1       -0.1647
     11 C         139.7053  140.6476  168.6878 C.2     1  UNL1        0.0706
     12 C         139.7105  141.4211  169.9728 C.3     1  UNL1        0.0705
     13 C         140.7927  142.4250  170.2396 C.2     1  UNL1       -0.0199
     14 C         141.8697  142.6552  169.2211 C.2     1  UNL1       -0.0029
     15 C         141.8644  141.8815  167.9360 C.2     1  UNL1        0.0156
     16 C         140.7822  140.8777  167.6693 C.2     1  UNL1        0.0668
     17 C         143.8387  139.5801  161.5208 C.3     1  UNL1        0.1072
     18 C         143.8589  140.7161  160.5414 C.3     1  UNL1        0.1890
     19 O         144.5388  142.0041  160.9007 O.3     1  UNL1       -0.2574
     20 O         146.2189  141.4464  163.3227 O.2     1  UNL1       -0.2724
     21 C         145.0654  142.4010  163.4136 C.2     1  UNL1        0.2520
     22 C         144.7520  143.0768  164.7156 C.3     1  UNL1        0.0924
     23 C         143.5986  144.0314  164.8066 C.3     1  UNL1        0.0373
     24 C         142.7585  144.3102  163.5955 C.ar    1  UNL1       -0.0057
     25 C         141.6050  145.2648  163.6865 C.ar    1  UNL1       -0.0030
     26 C         140.7650  145.5436  162.4755 C.ar    1  UNL1       -0.0002
     27 C         141.0784  144.8678  161.1735 C.ar    1  UNL1        0.0013
     28 C         142.2319  143.9133  161.0825 C.ar    1  UNL1        0.0169
     29 C         143.0719  143.6344  162.2935 C.ar    1  UNL1        0.0771
     30 N         144.2254  142.6798  162.2026 N.am    1  UNL1       -0.1461
@<TRIPOS>BOND
     1    20    21    2
     2    21    22    1
     3    22    23    1
     4    23    24    1
     5    24    25   ar
     6    25    26   ar
     7    26    27   ar
     8    27    28   ar
     9    28    29   ar
    10    29    30    1
    11    30    19    1
    12    19    18    1
    13    18    17    1
    14    17     1    1
    15     1     2    1
    16     2     3    1
    17     3     4    1
    18     4     7    1
    19     7     8   am
    20     8     9    2
    21     8    10    1
    22    10    11    2
    23    11    12    1
    24    12    13    1
    25    13    14    2
    26    14    15    1
    27    15    16    2
    28     4     5    1
    29     5     6    1
    30    30    21   am
    31     6     1    1
    32    29    24   ar
    33    16     7    1
    34    16    11    1
@<TRIPOS>MOLECULE
*****
 30 34 0 0 0
SMALL
GASTEIGER

@<TRIPOS>ATOM
      1 N         140.5905  140.0928  162.3378 N.3     1  UNL1       -0.2704
      2 C         140.8048  138.8524  163.1535 C.3     1  UNL1        0.0739
      3 C         140.6681  138.9035  164.6464 C.3     1  UNL1        0.0376
      4 C         140.3171  140.1951  165.3236 C.3     1  UNL1        0.0841
      5 C         140.1028  141.4356  164.5078 C.3     1  UNL1        0.0376
      6 C         140.2395  141.3844  163.0150 C.3     1  UNL1        0.0739
      7 N         140.1804  140.2463  166.8164 N.am    1  UNL1       -0.2423
      8 C         139.0795  139.6235  167.6228 C.2     1  UNL1        0.3309
      9 O         137.9221  138.8403  167.0779 O.2     1  UNL1       -0.2501
     10 N         139.3392  139.9215  169.0698 N.am    1  UNL1       -0.1647
     11 C         140.6007  140.7285  169.1577 C.2     1  UNL1        0.0706
     12 C         141.3430  141.3063  170.3260 C.3     1  UNL1        0.0705
     13 C         142.6054  142.0850  170.1016 C.2     1  UNL1       -0.0199
     14 C         143.1253  142.2857  168.7088 C.2     1  UNL1       -0.0029
     15 C         142.3828  141.7078  167.5406 C.2     1  UNL1        0.0156
     16 C         141.1205  140.9291  167.7651 C.2     1  UNL1        0.0668
     17 C         140.7273  140.0416  160.8450 C.3     1  UNL1        0.1072
     18 C         141.5608  141.0652  160.1326 C.3     1  UNL1        0.1890
     19 O         143.0488  141.0840  160.3216 O.3     1  UNL1       -0.2574
     20 O         144.0296  138.4264  161.3091 O.2     1  UNL1       -0.2724
     21 C         144.1219  139.6353  162.1924 C.2     1  UNL1        0.2520
     22 C         144.7045  139.5154  163.5694 C.3     1  UNL1        0.0924
     23 C         144.7968  140.7242  164.4526 C.3     1  UNL1        0.0373
     24 C         144.3065  142.0531  163.9589 C.ar    1  UNL1       -0.0057
     25 C         144.3988  143.2619  164.8421 C.ar    1  UNL1       -0.0030
     26 C         143.9084  144.5907  164.3484 C.ar    1  UNL1       -0.0002
     27 C         143.3258  144.7106  162.9714 C.ar    1  UNL1        0.0013
     28 C         143.2334  143.5018  162.0881 C.ar    1  UNL1        0.0169
     29 C         143.7238  142.1730  162.5819 C.ar    1  UNL1        0.0771
     30 N         143.6315  140.9641  161.6986 N.am    1  UNL1       -0.1461
@<TRIPOS>BOND
     1    20    21    2
     2    21    22    1
     3    22    23    1
     4    23    24    1
     5    24    25   ar
     6    25    26   ar
     7    26    27   ar
     8    27    28   ar
     9    28    29   ar
    10    29    30    1
    11    30    19    1
    12    19    18    1
    13    18    17    1
    14    17     1    1
    15     1     2    1
    16     2     3    1
    17     3     4    1
    18     4     7    1
    19     7     8   am
    20     8     9    2
    21     8    10    1
    22    10    11    2
    23    11    12    1
    24    12    13    1
    25    13    14    2
    26    14    15    1
    27    15    16    2
    28     4     5    1
    29     5     6    1
    30    30    21   am
    31     6     1    1
    32    29    24   ar
    33    16     7    1
    34    16    11    1
@<TRIPOS>MOLECULE
*****
 30 34 0 0 0
SMALL
GASTEIGER

@<TRIPOS>ATOM
      1 N         139.9842  141.3089  161.8240 N.3     1  UNL1       -0.2704
      2 C         138.9727  141.9878  162.6990 C.3     1  UNL1        0.0739
      3 C         138.9521  141.7135  164.1737 C.3     1  UNL1        0.0376
      4 C         139.9431  140.7602  164.7731 C.3     1  UNL1        0.0841
      5 C         140.9546  140.0813  163.8979 C.3     1  UNL1        0.0376
      6 C         140.9752  140.3556  162.4234 C.3     1  UNL1        0.0739
      7 N         139.9225  140.4859  166.2476 N.am    1  UNL1       -0.2423
      8 C         138.8906  139.6808  166.9803 C.2     1  UNL1        0.3309
      9 O         137.6980  139.0086  166.3671 O.2     1  UNL1       -0.2501
     10 N         139.2605  139.6658  168.4339 N.am    1  UNL1       -0.1647
     11 C         140.5211  140.4618  168.5996 C.2     1  UNL1        0.0706
     12 C         141.3492  140.7904  169.8063 C.3     1  UNL1        0.0705
     13 C         142.5866  141.6260  169.6618 C.2     1  UNL1       -0.0199
     14 C         142.9957  142.1329  168.3105 C.2     1  UNL1       -0.0029
     15 C         142.1675  141.8042  167.1039 C.2     1  UNL1        0.0156
     16 C         140.9302  140.9686  167.2484 C.2     1  UNL1        0.0668
     17 C         140.0048  141.5832  160.3494 C.3     1  UNL1        0.1072
     18 C         141.3051  141.8665  159.6573 C.3     1  UNL1        0.1890
     19 O         141.9822  143.1917  159.8465 O.3     1  UNL1       -0.2574
     20 O         139.8915  145.2671  160.4139 O.2     1  UNL1       -0.2724
     21 C         140.8971  144.9078  161.4674 C.2     1  UNL1        0.2520
     22 C         140.8573  145.5862  162.8046 C.3     1  UNL1        0.0924
     23 C         141.8628  145.2270  163.8581 C.3     1  UNL1        0.0373
     24 C         142.9082  144.1893  163.5744 C.ar    1  UNL1       -0.0057
     25 C         143.9137  143.8300  164.6279 C.ar    1  UNL1       -0.0030
     26 C         144.9589  142.7923  164.3442 C.ar    1  UNL1       -0.0002
     27 C         144.9987  142.1139  163.0070 C.ar    1  UNL1        0.0013
     28 C         143.9933  142.4731  161.9535 C.ar    1  UNL1        0.0169
     29 C         142.9480  143.5108  162.2372 C.ar    1  UNL1        0.0771
     30 N         141.9424  143.8701  161.1837 N.am    1  UNL1       -0.1461
@<TRIPOS>BOND
     1    20    21    2
     2    21    22    1
     3    22    23    1
     4    23    24    1
     5    24    25   ar
     6    25    26   ar
     7    26    27   ar
     8    27    28   ar
     9    28    29   ar
    10    29    30    1
    11    30    19    1
    12    19    18    1
    13    18    17    1
    14    17     1    1
    15     1     2    1
    16     2     3    1
    17     3     4    1
    18     4     7    1
    19     7     8   am
    20     8     9    2
    21     8    10    1
    22    10    11    2
    23    11    12    1
    24    12    13    1
    25    13    14    2
    26    14    15    1
    27    15    16    2
    28     4     5    1
    29     5     6    1
    30    30    21   am
    31     6     1    1
    32    29    24   ar
    33    16     7    1
    34    16    11    1
@<TRIPOS>MOLECULE
*****
 30 34 0 0 0
SMALL
GASTEIGER

@<TRIPOS>ATOM
      1 N         141.4000  142.7170  167.1571 N.3     1  UNL1       -0.2704
      2 C         142.6615  142.4604  166.3872 C.3     1  UNL1        0.0739
      3 C         142.7126  142.7441  164.9151 C.3     1  UNL1        0.0376
      4 C         141.5022  143.2843  164.2129 C.3     1  UNL1        0.0841
      5 C         140.2406  143.5408  164.9829 C.3     1  UNL1        0.0376
      6 C         140.1896  143.2572  166.4549 C.3     1  UNL1        0.0739
      7 N         141.5532  143.5679  162.7409 N.am    1  UNL1       -0.2423
      8 C         142.6383  144.3155  162.0242 C.2     1  UNL1        0.3309
      9 O         143.8628  144.9108  162.6537 O.2     1  UNL1       -0.2501
     10 N         142.2839  144.3634  160.5675 N.am    1  UNL1       -0.1647
     11 C         140.9797  143.6453  160.3838 C.2     1  UNL1        0.0706
     12 C         140.1452  143.3757  159.1670 C.3     1  UNL1        0.0705
     13 C         138.8589  142.6143  159.2934 C.2     1  UNL1       -0.0199
     14 C         138.4073  142.1227  160.6368 C.2     1  UNL1       -0.0029
     15 C         139.2420  142.3924  161.8536 C.2     1  UNL1        0.0156
     16 C         140.5282  143.1537  161.7271 C.2     1  UNL1        0.0668
     17 C         141.3490  142.4333  168.6291 C.3     1  UNL1        0.1072
     18 C         140.2696  141.5533  169.1863 C.3     1  UNL1        0.1890
     19 O         140.2455  140.0916  168.8500 O.3     1  UNL1       -0.2574
     20 O         143.1227  139.3228  169.2118 O.2     1  UNL1       -0.2724
     21 C         142.4752  139.1928  167.8649 C.2     1  UNL1        0.2520
     22 C         143.2664  138.6783  166.6990 C.3     1  UNL1        0.0924
     23 C         142.6190  138.5482  165.3522 C.3     1  UNL1        0.0373
     24 C         141.1803  138.9326  165.1713 C.ar    1  UNL1       -0.0057
     25 C         140.5329  138.8026  163.8245 C.ar    1  UNL1       -0.0030
     26 C         139.0944  139.1869  163.6436 C.ar    1  UNL1       -0.0002
     27 C         138.3032  139.7014  164.8096 C.ar    1  UNL1        0.0013
     28 C         138.9506  139.8315  166.1564 C.ar    1  UNL1        0.0169
     29 C         140.3892  139.4471  166.3372 C.ar    1  UNL1        0.0771
     30 N         141.0367  139.5771  167.6841 N.am    1  UNL1       -0.1461
@<TRIPOS>BOND
     1    20    21    2
     2    21    22    1
     3    22    23    1
     4    23    24    1
     5    24    25   ar
     6    25    26   ar
     7    26    27   ar
     8    27    28   ar
     9    28    29   ar
    10    29    30    1
    11    30    19    1
    12    19    18    1
    13    18    17    1
    14    17     1    1
    15     1     2    1
    16     2     3    1
    17     3     4    1
    18     4     7    1
    19     7     8   am
    20     8     9    2
    21     8    10    1
    22    10    11    2
    23    11    12    1
    24    12    13    1
    25    13    14    2
    26    14    15    1
    27    15    16    2
    28     4     5    1
    29     5     6    1
    30    30    21   am
    31     6     1    1
    32    29    24   ar
    33    16     7    1
    34    16    11    1
