@<TRIPOS>MOLECULE
*****
 36 40 0 0 0
SMALL
GASTEIGER

@<TRIPOS>ATOM
      1 N         140.5720  140.6696  168.8896 N.3     1  UNL1       -0.2723
      2 C         139.1817  140.1858  168.6013 C.3     1  UNL1        0.0726
      3 C         139.2029  139.4747  167.2807 C.3     1  UNL1        0.0268
      4 C         138.3568  138.7362  166.2864 C.3     1  UNL1        0.0176
      5 C         139.2373  138.3242  165.1440 C.3     1  UNL1        0.0546
      6 C         140.6275  138.8080  165.4323 C.3     1  UNL1        0.0257
      7 C         140.6063  139.5191  166.7529 C.3     1  UNL1        0.0863
      8 C         141.4524  140.2576  167.7472 C.3     1  UNL1        0.0808
      9 C         142.0096  139.5635  166.2250 C.2     1  UNL1        0.2264
     10 O         143.0191  138.5575  166.6930 O.2     1  UNL1       -0.2748
     11 N         142.4035  140.6138  165.2292 N.am    1  UNL1       -0.2750
     12 C         143.8068  140.6582  164.7013 C.3     1  UNL1        0.1000
     13 C         144.2007  141.7085  163.7055 C.3     1  UNL1        0.0670
     14 C         143.1912  142.7144  163.2375 C.ar    1  UNL1        0.0583
     15 N         143.5850  143.7648  162.2417 N.ar    1  UNL1       -0.2484
     16 C         142.5755  144.7707  161.7737 C.ar    1  UNL1        0.1023
     17 C         141.1722  144.7263  162.3016 C.ar    1  UNL1        0.0902
     18 C         140.7783  143.6760  163.2974 C.ar    1  UNL1        0.0040
     19 C         141.7878  142.6701  163.7654 C.ar    1  UNL1        0.0113
     20 C         141.3940  141.6198  164.7612 C.3     1  UNL1        0.1213
     21 C         140.1627  145.7323  161.8336 C.3     1  UNL1        0.4200
     22 F         139.1532  146.7382  161.3657 F       1  UNL1       -0.1658
     23 F         139.4713  145.6568  163.1627 F       1  UNL1       -0.1658
     24 F         140.8540  145.8078  160.5046 F       1  UNL1       -0.1658
     25 C         140.1418  142.5308  170.6507 C.3     1  UNL1        0.0188
     26 C         141.0056  141.4318  170.1067 C.3     1  UNL1        0.0721
     27 N         138.8036  137.5620  163.9269 N.3     1  UNL1       -0.2975
     28 H         137.8294  137.2992  164.0758 H       1  UNL1        0.1232
     29 C         138.8767  138.2052  162.5738 C.3     1  UNL1        0.0865
     30 C         137.7109  138.9931  162.0539 C.3     1  UNL1        0.0503
     31 C         137.7840  139.6362  160.7008 C.3     1  UNL1        0.1437
     32 O         139.0230  139.4916  159.8675 O.3     1  UNL1       -0.3511
     33 C         140.1887  138.7037  160.3874 C.3     1  UNL1        0.1729
     34 C         140.1156  138.0606  161.7406 C.3     1  UNL1        0.1591
     35 O         141.2813  137.2727  162.2605 O.3     1  UNL1       -0.3496
     36 C         142.6148  137.9360  162.4396 C.3     1  UNL1        0.1742
@<TRIPOS>BOND
     1    25    26    1
     2    26     1    1
     3     1     2    1
     4     3     2    1
     5     3     4    1
     6     4     5    1
     7     5    27    1
     8    27    29    1
     9    29    30    1
    10    30    31    1
    11    31    32    1
    12    32    33    1
    13    33    34    1
    14    34    35    1
    15    35    36    1
    16     5     6    1
    17     6     7    1
    18     7     9    1
    19     9    10    2
    20     9    11   am
    21    11    12    1
    22    12    13    1
    23    13    14    1
    24    14    15   ar
    25    15    16   ar
    26    16    17   ar
    27    17    21    1
    28    21    22    1
    29    21    23    1
    30    21    24    1
    31    17    18   ar
    32    18    19   ar
    33    19    20    1
    34     7     8    1
    35     8     1    1
    36     7     3    1
    37    20    11    1
    38    34    29    1
    39    19    14   ar
    40    27    28    1
@<TRIPOS>MOLECULE
*****
 36 40 0 0 0
SMALL
GASTEIGER

@<TRIPOS>ATOM
      1 N         139.9141  138.3067  162.8399 N.3     1  UNL1       -0.2723
      2 C         141.1882  137.6474  163.2782 C.3     1  UNL1        0.0726
      3 C         141.6122  138.2733  164.5737 C.3     1  UNL1        0.0268
      4 C         142.6616  138.2527  165.6453 C.3     1  UNL1        0.0176
      5 C         142.2982  139.2861  166.6700 C.3     1  UNL1        0.0546
      6 C         141.0241  139.9454  166.2317 C.3     1  UNL1        0.0257
      7 C         140.6001  139.3195  164.9361 C.3     1  UNL1        0.0863
      8 C         139.5506  139.3400  163.8646 C.3     1  UNL1        0.0808
      9 C         139.5880  140.3655  165.2986 C.2     1  UNL1        0.2264
     10 O         138.6983  140.1674  166.4898 O.2     1  UNL1       -0.2748
     11 N         139.4657  141.6098  164.4698 N.am    1  UNL1       -0.2750
     12 C         138.4537  142.6559  164.8323 C.3     1  UNL1        0.1000
     13 C         138.3314  143.9001  164.0035 C.3     1  UNL1        0.0670
     14 C         139.2212  144.0983  162.8122 C.ar    1  UNL1        0.0583
     15 N         139.0988  145.3426  161.9834 N.ar    1  UNL1       -0.2484
     16 C         139.9886  145.5407  160.7922 C.ar    1  UNL1        0.1023
     17 C         141.0007  144.4945  160.4297 C.ar    1  UNL1        0.0902
     18 C         141.1230  143.2503  161.2585 C.ar    1  UNL1        0.0040
     19 C         140.2332  143.0522  162.4498 C.ar    1  UNL1        0.0113
     20 C         140.3555  141.8080  163.2786 C.3     1  UNL1        0.1213
     21 C         141.8905  144.6926  159.2385 C.3     1  UNL1        0.4200
     22 F         142.7802  144.8908  158.0473 F       1  UNL1       -0.1658
     23 F         142.8627  143.6975  159.7992 F       1  UNL1       -0.1658
     24 F         140.9182  145.6878  158.6778 F       1  UNL1       -0.1658
     25 C         137.7737  138.5740  161.3918 C.3     1  UNL1        0.0188
     26 C         139.1395  137.9884  161.5954 C.3     1  UNL1        0.0721
     27 N         143.0728  139.6044  167.9145 N.3     1  UNL1       -0.2975
     28 H         143.9529  140.0236  167.6144 H       1  UNL1        0.1232
     29 C         142.4875  140.5198  168.9486 C.3     1  UNL1        0.0865
     30 C         141.5812  139.9701  170.0101 C.3     1  UNL1        0.0503
     31 C         140.9959  140.8855  171.0442 C.3     1  UNL1        0.1437
     32 O         141.3169  142.3505  171.0170 O.3     1  UNL1       -0.3511
     33 C         142.2232  142.9001  169.9556 C.3     1  UNL1        0.1729
     34 C         142.8085  141.9847  168.9214 C.3     1  UNL1        0.1591
     35 O         143.7148  142.5343  167.8601 O.3     1  UNL1       -0.3496
     36 C         143.1907  142.7695  166.4744 C.3     1  UNL1        0.1742
@<TRIPOS>BOND
     1    25    26    1
     2    26     1    1
     3     1     2    1
     4     3     2    1
     5     3     4    1
     6     4     5    1
     7     5    27    1
     8    27    29    1
     9    29    30    1
    10    30    31    1
    11    31    32    1
    12    32    33    1
    13    33    34    1
    14    34    35    1
    15    35    36    1
    16     5     6    1
    17     6     7    1
    18     7     9    1
    19     9    10    2
    20     9    11   am
    21    11    12    1
    22    12    13    1
    23    13    14    1
    24    14    15   ar
    25    15    16   ar
    26    16    17   ar
    27    17    21    1
    28    21    22    1
    29    21    23    1
    30    21    24    1
    31    17    18   ar
    32    18    19   ar
    33    19    20    1
    34     7     8    1
    35     8     1    1
    36     7     3    1
    37    20    11    1
    38    34    29    1
    39    19    14   ar
    40    27    28    1
@<TRIPOS>MOLECULE
*****
 36 40 0 0 0
SMALL
GASTEIGER

@<TRIPOS>ATOM
      1 N         141.6498  141.0431  168.3380 N.3     1  UNL1       -0.2723
      2 C         141.4543  142.5061  168.0706 C.3     1  UNL1        0.0726
      3 C         140.4685  142.6446  166.9485 C.3     1  UNL1        0.0268
      4 C         139.7384  143.6342  166.0898 C.3     1  UNL1        0.0176
      5 C         138.8734  142.8685  165.1330 C.3     1  UNL1        0.0546
      6 C         139.0689  141.4055  165.4005 C.3     1  UNL1        0.0257
      7 C         140.0547  141.2671  166.5225 C.3     1  UNL1        0.0863
      8 C         140.7848  140.2774  167.3812 C.3     1  UNL1        0.0808
      9 C         139.6409  139.8897  166.0965 C.2     1  UNL1        0.2264
     10 O         138.7365  139.0738  166.9719 O.2     1  UNL1       -0.2748
     11 N         140.1315  139.3281  164.7949 N.am    1  UNL1       -0.2750
     12 C         139.7177  137.9507  164.3688 C.3     1  UNL1        0.1000
     13 C         140.2082  137.3892  163.0673 C.3     1  UNL1        0.0670
     14 C         141.1126  138.2051  162.1918 C.ar    1  UNL1        0.0583
     15 N         141.6032  137.6435  160.8903 N.ar    1  UNL1       -0.2484
     16 C         142.5076  138.4594  160.0148 C.ar    1  UNL1        0.1023
     17 C         142.9214  139.8368  160.4409 C.ar    1  UNL1        0.0902
     18 C         142.4308  140.3984  161.7424 C.ar    1  UNL1        0.0040
     19 C         141.5264  139.5825  162.6179 C.ar    1  UNL1        0.0113
     20 C         141.0358  140.1440  163.9194 C.3     1  UNL1        0.1213
     21 C         143.8257  140.6527  159.5654 C.3     1  UNL1        0.4200
     22 F         144.7301  141.4686  158.6899 F       1  UNL1       -0.1658
     23 F         143.5987  139.6923  158.4358 F       1  UNL1       -0.1658
     24 F         144.0528  141.6131  160.6950 F       1  UNL1       -0.1658
     25 C         142.1905  139.1485  170.0316 C.3     1  UNL1        0.0188
     26 C         142.5519  140.4500  169.3794 C.3     1  UNL1        0.0721
     27 N         137.9712  143.4616  164.0916 N.3     1  UNL1       -0.2975
     28 H         137.7291  144.3994  164.4114 H       1  UNL1        0.1232
     29 C         138.4474  143.5964  162.6756 C.3     1  UNL1        0.0865
     30 C         139.2928  144.7696  162.2771 C.3     1  UNL1        0.0503
     31 C         139.7690  144.9044  160.8611 C.3     1  UNL1        0.1437
     32 O         139.3997  143.8658  159.8436 O.3     1  UNL1       -0.3511
     33 C         138.5542  142.6927  160.2421 C.3     1  UNL1        0.1729
     34 C         138.0781  142.5579  161.6582 C.3     1  UNL1        0.1591
     35 O         137.2327  141.3848  162.0567 O.3     1  UNL1       -0.3496
     36 C         137.7357  139.9887  161.8372 C.3     1  UNL1        0.1742
@<TRIPOS>BOND
     1    25    26    1
     2    26     1    1
     3     1     2    1
     4     3     2    1
     5     3     4    1
     6     4     5    1
     7     5    27    1
     8    27    29    1
     9    29    30    1
    10    30    31    1
    11    31    32    1
    12    32    33    1
    13    33    34    1
    14    34    35    1
    15    35    36    1
    16     5     6    1
    17     6     7    1
    18     7     9    1
    19     9    10    2
    20     9    11   am
    21    11    12    1
    22    12    13    1
    23    13    14    1
    24    14    15   ar
    25    15    16   ar
    26    16    17   ar
    27    17    21    1
    28    21    22    1
    29    21    23    1
    30    21    24    1
    31    17    18   ar
    32    18    19   ar
    33    19    20    1
    34     7     8    1
    35     8     1    1
    36     7     3    1
    37    20    11    1
    38    34    29    1
    39    19    14   ar
    40    27    28    1
@<TRIPOS>MOLECULE
*****
 36 40 0 0 0
SMALL
GASTEIGER

@<TRIPOS>ATOM
      1 N         141.9098  140.9195  168.6777 N.3     1  UNL1       -0.2723
      2 C         142.2813  139.4947  168.3912 C.3     1  UNL1        0.0726
      3 C         142.9772  139.4552  167.0630 C.3     1  UNL1        0.0268
      4 C         143.6369  138.5502  166.0651 C.3     1  UNL1        0.0176
      5 C         144.1033  139.3913  164.9140 C.3     1  UNL1        0.0546
      6 C         143.7319  140.8161  165.2005 C.3     1  UNL1        0.0257
      7 C         143.0359  140.8556  166.5286 C.3     1  UNL1        0.0863
      8 C         142.3763  141.7606  167.5266 C.3     1  UNL1        0.0808
      9 C         143.0947  142.2559  165.9943 C.2     1  UNL1        0.2264
     10 O         144.0391  143.2511  166.6006 O.2     1  UNL1       -0.2748
     11 N         142.2089  142.6612  164.8535 N.am    1  UNL1       -0.2750
     12 C         142.2677  144.0615  164.3191 C.3     1  UNL1        0.1000
     13 C         141.3819  144.4667  163.1784 C.3     1  UNL1        0.0670
     14 C         140.4375  143.4715  162.5721 C.ar    1  UNL1        0.0583
     15 N         139.5517  143.8768  161.4313 N.ar    1  UNL1       -0.2484
     16 C         138.6072  142.8816  160.8249 C.ar    1  UNL1        0.1023
     17 C         138.5485  141.4812  161.3594 C.ar    1  UNL1        0.0902
     18 C         139.4342  141.0760  162.5001 C.ar    1  UNL1        0.0040
     19 C         140.3787  142.0712  163.1064 C.ar    1  UNL1        0.0113
     20 C         141.2644  141.6660  164.2471 C.3     1  UNL1        0.1213
     21 C         137.6040  140.4861  160.7530 C.3     1  UNL1        0.4200
     22 F         136.6596  139.4909  160.1467 F       1  UNL1       -0.1658
     23 F         137.8240  141.1003  159.4024 F       1  UNL1       -0.1658
     24 F         137.3841  139.8718  162.1037 F       1  UNL1       -0.1658
     25 C         140.7167  142.8356  169.9642 C.3     1  UNL1        0.0188
     26 C         141.1971  141.4160  169.9006 C.3     1  UNL1        0.0721
     27 N         144.8160  138.8947  163.6910 N.3     1  UNL1       -0.2975
     28 H         145.0118  137.9057  163.8455 H       1  UNL1        0.1232
     29 C         144.1608  139.0015  162.3459 C.3     1  UNL1        0.0865
     30 C         143.3210  137.8712  161.8289 C.3     1  UNL1        0.0503
     31 C         142.6658  137.9780  160.4838 C.3     1  UNL1        0.1437
     32 O         142.8504  139.2151  159.6557 O.3     1  UNL1       -0.3511
     33 C         143.6902  140.3453  160.1727 C.3     1  UNL1        0.1729
     34 C         144.3454  140.2385  161.5178 C.3     1  UNL1        0.1591
     35 O         145.1852  141.3687  162.0348 O.3     1  UNL1       -0.3496
     36 C         144.6964  142.7818  161.9156 C.3     1  UNL1        0.1742
@<TRIPOS>BOND
     1    25    26    1
     2    26     1    1
     3     1     2    1
     4     3     2    1
     5     3     4    1
     6     4     5    1
     7     5    27    1
     8    27    29    1
     9    29    30    1
    10    30    31    1
    11    31    32    1
    12    32    33    1
    13    33    34    1
    14    34    35    1
    15    35    36    1
    16     5     6    1
    17     6     7    1
    18     7     9    1
    19     9    10    2
    20     9    11   am
    21    11    12    1
    22    12    13    1
    23    13    14    1
    24    14    15   ar
    25    15    16   ar
    26    16    17   ar
    27    17    21    1
    28    21    22    1
    29    21    23    1
    30    21    24    1
    31    17    18   ar
    32    18    19   ar
    33    19    20    1
    34     7     8    1
    35     8     1    1
    36     7     3    1
    37    20    11    1
    38    34    29    1
    39    19    14   ar
    40    27    28    1
@<TRIPOS>MOLECULE
*****
 36 40 0 0 0
SMALL
GASTEIGER

@<TRIPOS>ATOM
      1 N         141.4679  141.0742  168.3371 N.3     1  UNL1       -0.2723
      2 C         142.6667  140.2568  167.9566 C.3     1  UNL1        0.0726
      3 C         142.3158  139.4601  166.7351 C.3     1  UNL1        0.0268
      4 C         142.8398  138.4626  165.7450 C.3     1  UNL1        0.0176
      5 C         141.7481  138.1712  164.7586 C.3     1  UNL1        0.0546
      6 C         140.5493  138.9886  165.1390 C.3     1  UNL1        0.0257
      7 C         140.9002  139.7853  166.3605 C.3     1  UNL1        0.0863
      8 C         140.3762  140.7828  167.3506 C.3     1  UNL1        0.0808
      9 C         139.4846  140.1104  165.9860 C.2     1  UNL1        0.2264
     10 O         138.3564  139.6884  166.8800 O.2     1  UNL1       -0.2748
     11 N         139.1971  140.8575  164.7174 N.am    1  UNL1       -0.2750
     12 C         137.7815  141.1826  164.3428 C.3     1  UNL1        0.1000
     13 C         137.4940  141.9297  163.0743 C.3     1  UNL1        0.0670
     14 C         138.6222  142.3517  162.1803 C.ar    1  UNL1        0.0583
     15 N         138.3347  143.0988  160.9118 N.ar    1  UNL1       -0.2484
     16 C         139.4629  143.5207  160.0178 C.ar    1  UNL1        0.1023
     17 C         140.8785  143.1956  160.3924 C.ar    1  UNL1        0.0902
     18 C         141.1660  142.4485  161.6609 C.ar    1  UNL1        0.0040
     19 C         140.0378  142.0265  162.5549 C.ar    1  UNL1        0.0113
     20 C         140.3252  141.2795  163.8234 C.3     1  UNL1        0.1213
     21 C         142.0067  143.6176  159.4984 C.3     1  UNL1        0.4200
     22 F         143.1348  144.0395  158.6045 F       1  UNL1       -0.1658
     23 F         142.9305  143.6504  160.6797 F       1  UNL1       -0.1658
     24 F         141.0829  143.5848  158.3171 F       1  UNL1       -0.1658
     25 C         140.5961  143.2919  169.3725 C.3     1  UNL1        0.0188
     26 C         141.3770  142.0175  169.4999 C.3     1  UNL1        0.0721
     27 N         141.8390  137.2279  163.5958 N.3     1  UNL1       -0.2975
     28 H         141.0321  136.6069  163.6565 H       1  UNL1        0.1232
     29 C         141.8681  137.7644  162.1953 C.3     1  UNL1        0.0865
     30 C         143.1811  137.9951  161.5077 C.3     1  UNL1        0.0503
     31 C         143.2102  138.5316  160.1072 C.3     1  UNL1        0.1437
     32 O         141.9263  138.8374  159.3944 O.3     1  UNL1       -0.3511
     33 C         140.6133  138.6066  160.0820 C.3     1  UNL1        0.1729
     34 C         140.5842  138.0701  161.4825 C.3     1  UNL1        0.1591
     35 O         139.2713  137.8394  162.1701 O.3     1  UNL1       -0.3496
     36 C         138.0330  138.5237  161.6715 C.3     1  UNL1        0.1742
@<TRIPOS>BOND
     1    25    26    1
     2    26     1    1
     3     1     2    1
     4     3     2    1
     5     3     4    1
     6     4     5    1
     7     5    27    1
     8    27    29    1
     9    29    30    1
    10    30    31    1
    11    31    32    1
    12    32    33    1
    13    33    34    1
    14    34    35    1
    15    35    36    1
    16     5     6    1
    17     6     7    1
    18     7     9    1
    19     9    10    2
    20     9    11   am
    21    11    12    1
    22    12    13    1
    23    13    14    1
    24    14    15   ar
    25    15    16   ar
    26    16    17   ar
    27    17    21    1
    28    21    22    1
    29    21    23    1
    30    21    24    1
    31    17    18   ar
    32    18    19   ar
    33    19    20    1
    34     7     8    1
    35     8     1    1
    36     7     3    1
    37    20    11    1
    38    34    29    1
    39    19    14   ar
    40    27    28    1
@<TRIPOS>MOLECULE
*****
 36 40 0 0 0
SMALL
GASTEIGER

@<TRIPOS>ATOM
      1 N         140.9895  138.9391  157.1266 N.3     1  UNL1       -0.2723
      2 C         139.5883  138.7789  157.6375 C.3     1  UNL1        0.0726
      3 C         139.2410  140.0039  158.4303 C.3     1  UNL1        0.0268
      4 C         138.1604  140.6620  159.2361 C.3     1  UNL1        0.0176
      5 C         138.6791  141.9861  159.7132 C.3     1  UNL1        0.0546
      6 C         140.0803  142.1463  159.2024 C.3     1  UNL1        0.0257
      7 C         140.4276  140.9213  158.4095 C.3     1  UNL1        0.0863
      8 C         141.5082  140.2632  157.6037 C.3     1  UNL1        0.0808
      9 C         141.6141  141.8387  158.3887 C.2     1  UNL1        0.2264
     10 O         141.8023  142.7958  157.2491 O.2     1  UNL1       -0.2748
     11 N         142.6126  141.7990  159.5074 N.am    1  UNL1       -0.2750
     12 C         143.7991  142.7164  159.4866 C.3     1  UNL1        0.1000
     13 C         144.7975  142.6767  160.6053 C.3     1  UNL1        0.0670
     14 C         144.6094  141.7196  161.7449 C.ar    1  UNL1        0.0583
     15 N         145.6079  141.6799  162.8636 N.ar    1  UNL1       -0.2484
     16 C         145.4197  140.7228  164.0032 C.ar    1  UNL1        0.1023
     17 C         144.2331  139.8053  164.0240 C.ar    1  UNL1        0.0902
     18 C         143.2347  139.8451  162.9052 C.ar    1  UNL1        0.0040
     19 C         143.4228  140.8022  161.7657 C.ar    1  UNL1        0.0113
     20 C         142.4245  140.8419  160.6470 C.3     1  UNL1        0.1213
     21 C         144.0449  138.8482  165.1635 C.3     1  UNL1        0.4200
     22 F         143.8568  137.8911  166.3030 F       1  UNL1       -0.1658
     23 F         142.5583  139.0209  165.0630 F       1  UNL1       -0.1658
     24 F         145.5316  138.6756  165.2640 F       1  UNL1       -0.1658
     25 C         141.4749  136.4808  156.4402 C.3     1  UNL1        0.0188
     26 C         141.7402  137.9491  156.2861 C.3     1  UNL1        0.0721
     27 N         137.9284  142.9761  160.5537 N.3     1  UNL1       -0.2975
     28 H         136.9373  142.8394  160.3551 H       1  UNL1        0.1232
     29 C         138.0775  142.9585  162.0461 C.3     1  UNL1        0.0865
     30 C         137.9078  141.6737  162.8017 C.3     1  UNL1        0.0503
     31 C         138.0569  141.6561  164.2941 C.3     1  UNL1        0.1437
     32 O         138.3756  142.9232  165.0311 O.3     1  UNL1       -0.3511
     33 C         138.5452  144.2078  164.2756 C.3     1  UNL1        0.1729
     34 C         138.3961  144.2255  162.7831 C.3     1  UNL1        0.1591
     35 O         138.5658  145.5101  162.0276 O.3     1  UNL1       -0.3496
     36 C         139.9243  145.9208  161.5418 C.3     1  UNL1        0.1742
@<TRIPOS>BOND
     1    25    26    1
     2    26     1    1
     3     1     2    1
     4     3     2    1
     5     3     4    1
     6     4     5    1
     7     5    27    1
     8    27    29    1
     9    29    30    1
    10    30    31    1
    11    31    32    1
    12    32    33    1
    13    33    34    1
    14    34    35    1
    15    35    36    1
    16     5     6    1
    17     6     7    1
    18     7     9    1
    19     9    10    2
    20     9    11   am
    21    11    12    1
    22    12    13    1
    23    13    14    1
    24    14    15   ar
    25    15    16   ar
    26    16    17   ar
    27    17    21    1
    28    21    22    1
    29    21    23    1
    30    21    24    1
    31    17    18   ar
    32    18    19   ar
    33    19    20    1
    34     7     8    1
    35     8     1    1
    36     7     3    1
    37    20    11    1
    38    34    29    1
    39    19    14   ar
    40    27    28    1
@<TRIPOS>MOLECULE
*****
 36 40 0 0 0
SMALL
GASTEIGER

@<TRIPOS>ATOM
      1 N         138.9637  139.1481  163.5804 N.3     1  UNL1       -0.2723
      2 C         137.8306  139.8776  162.9217 C.3     1  UNL1        0.0726
      3 C         138.3882  141.1080  162.2697 C.3     1  UNL1        0.0268
      4 C         138.0326  142.3194  161.4596 C.3     1  UNL1        0.0176
      5 C         139.2906  143.0989  161.2147 C.3     1  UNL1        0.0546
      6 C         140.4236  142.3693  161.8734 C.3     1  UNL1        0.0257
      7 C         139.8660  141.1389  162.5255 C.3     1  UNL1        0.0863
      8 C         140.2216  139.9275  163.3355 C.3     1  UNL1        0.0808
      9 C         141.3437  141.1697  162.7812 C.2     1  UNL1        0.2264
     10 O         142.3035  140.8555  161.6721 O.2     1  UNL1       -0.2748
     11 N         141.8617  141.5149  164.1460 N.am    1  UNL1       -0.2750
     12 C         143.3393  141.5457  164.4017 C.3     1  UNL1        0.1000
     13 C         143.8572  141.8908  165.7665 C.3     1  UNL1        0.0670
     14 C         142.8974  142.2050  166.8756 C.ar    1  UNL1        0.0583
     15 N         143.4154  142.5501  168.2404 N.ar    1  UNL1       -0.2484
     16 C         142.4555  142.8644  169.3495 C.ar    1  UNL1        0.1023
     17 C         140.9778  142.8335  169.0937 C.ar    1  UNL1        0.0902
     18 C         140.4599  142.4884  167.7289 C.ar    1  UNL1        0.0040
     19 C         141.4197  142.1742  166.6198 C.ar    1  UNL1        0.0113
     20 C         140.9018  141.8291  165.2551 C.3     1  UNL1        0.1213
     21 C         140.0180  143.1477  170.2028 C.3     1  UNL1        0.4200
     22 F         139.0582  143.4619  171.3118 F       1  UNL1       -0.1658
     23 F         140.4188  144.5918  170.1405 F       1  UNL1       -0.1658
     24 F         139.6172  141.7036  170.2650 F       1  UNL1       -0.1658
     25 C         138.4933  137.8893  165.8040 C.3     1  UNL1        0.0188
     26 C         138.8575  137.8643  164.3491 C.3     1  UNL1        0.0721
     27 N         139.3968  144.3826  160.4460 N.3     1  UNL1       -0.2975
     28 H         139.8513  145.0574  161.0612 H       1  UNL1        0.1232
     29 C         140.1382  144.4170  159.1425 C.3     1  UNL1        0.0865
     30 C         141.3998  145.2189  159.0182 C.3     1  UNL1        0.0503
     31 C         142.1411  145.2534  157.7146 C.3     1  UNL1        0.1437
     32 O         141.6209  144.4859  156.5354 O.3     1  UNL1       -0.3511
     33 C         140.3593  143.6841  156.6598 C.3     1  UNL1        0.1729
     34 C         139.6180  143.6497  157.9633 C.3     1  UNL1        0.1591
     35 O         138.3564  142.8478  158.0877 O.3     1  UNL1       -0.3496
     36 C         138.3107  141.4377  157.5782 C.3     1  UNL1        0.1742
@<TRIPOS>BOND
     1    25    26    1
     2    26     1    1
     3     1     2    1
     4     3     2    1
     5     3     4    1
     6     4     5    1
     7     5    27    1
     8    27    29    1
     9    29    30    1
    10    30    31    1
    11    31    32    1
    12    32    33    1
    13    33    34    1
    14    34    35    1
    15    35    36    1
    16     5     6    1
    17     6     7    1
    18     7     9    1
    19     9    10    2
    20     9    11   am
    21    11    12    1
    22    12    13    1
    23    13    14    1
    24    14    15   ar
    25    15    16   ar
    26    16    17   ar
    27    17    21    1
    28    21    22    1
    29    21    23    1
    30    21    24    1
    31    17    18   ar
    32    18    19   ar
    33    19    20    1
    34     7     8    1
    35     8     1    1
    36     7     3    1
    37    20    11    1
    38    34    29    1
    39    19    14   ar
    40    27    28    1
@<TRIPOS>MOLECULE
*****
 36 40 0 0 0
SMALL
GASTEIGER

@<TRIPOS>ATOM
      1 N         140.7495  144.5559  159.3985 N.3     1  UNL1       -0.2723
      2 C         140.5809  145.4492  160.5917 C.3     1  UNL1        0.0726
      3 C         141.2881  144.8123  161.7512 C.3     1  UNL1        0.0268
      4 C         141.6209  144.9707  163.2051 C.3     1  UNL1        0.0176
      5 C         142.4322  143.7817  163.6271 C.3     1  UNL1        0.0546
      6 C         142.6008  142.8885  162.4339 C.3     1  UNL1        0.0257
      7 C         141.8937  143.5254  161.2745 C.3     1  UNL1        0.0863
      8 C         141.5608  143.3669  159.8205 C.3     1  UNL1        0.0808
      9 C         142.4993  142.2385  160.7979 C.2     1  UNL1        0.2264
     10 O         143.5099  142.2504  159.6896 O.2     1  UNL1       -0.2748
     11 N         142.0942  140.9397  161.4297 N.am    1  UNL1       -0.2750
     12 C         142.6998  139.6528  160.9531 C.3     1  UNL1        0.1000
     13 C         142.2947  138.3541  161.5848 C.3     1  UNL1        0.0670
     14 C         141.2840  138.3422  162.6932 C.ar    1  UNL1        0.0583
     15 N         140.8790  137.0434  163.3249 N.ar    1  UNL1       -0.2484
     16 C         139.8683  137.0315  164.4333 C.ar    1  UNL1        0.1023
     17 C         139.2627  138.3185  164.9098 C.ar    1  UNL1        0.0902
     18 C         139.6678  139.6172  164.2781 C.ar    1  UNL1        0.0040
     19 C         140.6784  139.6291  163.1697 C.ar    1  UNL1        0.0113
     20 C         141.0835  140.9278  162.5380 C.3     1  UNL1        0.1213
     21 C         138.2520  138.3066  166.0182 C.3     1  UNL1        0.4200
     22 F         137.2414  138.2947  167.1265 F       1  UNL1       -0.1658
     23 F         138.3198  139.8030  166.0959 F       1  UNL1       -0.1658
     24 F         138.1843  136.8101  165.9404 F       1  UNL1       -0.1658
     25 C         140.3584  146.1582  157.3911 C.3     1  UNL1        0.0188
     26 C         140.2027  144.8075  158.0245 C.3     1  UNL1        0.0721
     27 N         142.9790  143.5301  165.0011 N.3     1  UNL1       -0.2975
     28 H         142.7331  144.3410  165.5689 H       1  UNL1        0.1232
     29 C         142.5472  142.3164  165.7695 C.3     1  UNL1        0.0865
     30 C         141.4149  142.4124  166.7488 C.3     1  UNL1        0.0503
     31 C         140.9831  141.1987  167.5172 C.3     1  UNL1        0.1437
     32 O         141.6835  139.8890  167.3063 O.3     1  UNL1       -0.3511
     33 C         142.8156  139.7931  166.3271 C.3     1  UNL1        0.1729
     34 C         143.2475  141.0068  165.5587 C.3     1  UNL1        0.1591
     35 O         144.3796  140.9110  164.5794 O.3     1  UNL1       -0.3496
     36 C         144.8771  139.5666  164.1374 C.3     1  UNL1        0.1742
@<TRIPOS>BOND
     1    25    26    1
     2    26     1    1
     3     1     2    1
     4     3     2    1
     5     3     4    1
     6     4     5    1
     7     5    27    1
     8    27    29    1
     9    29    30    1
    10    30    31    1
    11    31    32    1
    12    32    33    1
    13    33    34    1
    14    34    35    1
    15    35    36    1
    16     5     6    1
    17     6     7    1
    18     7     9    1
    19     9    10    2
    20     9    11   am
    21    11    12    1
    22    12    13    1
    23    13    14    1
    24    14    15   ar
    25    15    16   ar
    26    16    17   ar
    27    17    21    1
    28    21    22    1
    29    21    23    1
    30    21    24    1
    31    17    18   ar
    32    18    19   ar
    33    19    20    1
    34     7     8    1
    35     8     1    1
    36     7     3    1
    37    20    11    1
    38    34    29    1
    39    19    14   ar
    40    27    28    1
@<TRIPOS>MOLECULE
*****
 36 40 0 0 0
SMALL
GASTEIGER

@<TRIPOS>ATOM
      1 N         141.5280  138.4031  158.0980 N.3     1  UNL1       -0.2723
      2 C         140.0880  138.6729  157.7759 C.3     1  UNL1        0.0726
      3 C         139.6466  139.8578  158.5829 C.3     1  UNL1        0.0268
      4 C         138.4839  140.7568  158.8826 C.3     1  UNL1        0.0176
      5 C         138.9324  141.7750  159.8886 C.3     1  UNL1        0.0546
      6 C         140.3724  141.5052  160.2106 C.3     1  UNL1        0.0257
      7 C         140.8138  140.3203  159.4037 C.3     1  UNL1        0.0863
      8 C         141.9766  139.4213  159.1040 C.3     1  UNL1        0.0808
      9 C         141.9810  140.7829  160.2244 C.2     1  UNL1        0.2264
     10 O         143.1800  141.3829  159.5519 O.2     1  UNL1       -0.2748
     11 N         141.9492  140.6455  161.7179 N.am    1  UNL1       -0.2750
     12 C         143.1163  141.1081  162.5386 C.3     1  UNL1        0.1000
     13 C         143.0845  140.9707  164.0319 C.3     1  UNL1        0.0670
     14 C         141.8854  140.3707  164.7045 C.ar    1  UNL1        0.0583
     15 N         141.8536  140.2333  166.1979 N.ar    1  UNL1       -0.2484
     16 C         140.6545  139.6333  166.8705 C.ar    1  UNL1        0.1023
     17 C         139.4873  139.1707  166.0496 C.ar    1  UNL1        0.0902
     18 C         139.5192  139.3081  164.5563 C.ar    1  UNL1        0.0040
     19 C         140.7183  139.9081  163.8837 C.ar    1  UNL1        0.0113
     20 C         140.7501  140.0455  162.3904 C.3     1  UNL1        0.1213
     21 C         138.2883  138.5707  166.7222 C.3     1  UNL1        0.4200
     22 F         137.0893  137.9708  167.3947 F       1  UNL1       -0.1658
     23 F         138.4050  139.5773  167.8282 F       1  UNL1       -0.1658
     24 F         138.1716  137.5642  165.6161 F       1  UNL1       -0.1658
     25 C         143.1892  137.5639  156.2852 C.3     1  UNL1        0.0188
     26 C         142.3713  137.3075  157.5161 C.3     1  UNL1        0.0721
     27 N         138.0891  142.8706  160.4704 N.3     1  UNL1       -0.2975
     28 H         137.1188  142.6409  160.2557 H       1  UNL1        0.1232
     29 C         138.1496  143.1634  161.9404 C.3     1  UNL1        0.0865
     30 C         137.6033  142.1728  162.9255 C.3     1  UNL1        0.0503
     31 C         137.6639  142.4655  164.3954 C.3     1  UNL1        0.1437
     32 O         138.2707  143.7489  164.8802 O.3     1  UNL1       -0.3511
     33 C         138.8169  144.7394  163.8950 C.3     1  UNL1        0.1729
     34 C         138.7564  144.4466  162.4251 C.3     1  UNL1        0.1591
     35 O         139.3026  145.4371  161.4400 O.3     1  UNL1       -0.3496
     36 C         140.7342  145.3468  161.0010 C.3     1  UNL1        0.1742
@<TRIPOS>BOND
     1    25    26    1
     2    26     1    1
     3     1     2    1
     4     3     2    1
     5     3     4    1
     6     4     5    1
     7     5    27    1
     8    27    29    1
     9    29    30    1
    10    30    31    1
    11    31    32    1
    12    32    33    1
    13    33    34    1
    14    34    35    1
    15    35    36    1
    16     5     6    1
    17     6     7    1
    18     7     9    1
    19     9    10    2
    20     9    11   am
    21    11    12    1
    22    12    13    1
    23    13    14    1
    24    14    15   ar
    25    15    16   ar
    26    16    17   ar
    27    17    21    1
    28    21    22    1
    29    21    23    1
    30    21    24    1
    31    17    18   ar
    32    18    19   ar
    33    19    20    1
    34     7     8    1
    35     8     1    1
    36     7     3    1
    37    20    11    1
    38    34    29    1
    39    19    14   ar
    40    27    28    1
