@<TRIPOS>MOLECULE
*****
 28 32 0 0 0
SMALL
GASTEIGER

@<TRIPOS>ATOM
      1 O         141.0790  136.8867  162.9685 O.2     1  UNL1       -0.2749
      2 C         140.0394  137.9566  163.1248 C.2     1  UNL1        0.2252
      3 N         139.6112  138.7656  161.9364 N.am    1  UNL1       -0.2767
      4 C         138.5715  139.8355  162.0927 C.3     1  UNL1        0.1107
      5 C         138.1434  140.6446  160.9043 C.3     1  UNL1        0.0939
      6 N         138.7549  140.3837  159.5597 N.3     1  UNL1       -0.2711
      7 C         139.7946  139.3137  159.4034 C.3     1  UNL1        0.0939
      8 C         140.2227  138.5047  160.5918 C.3     1  UNL1        0.1107
      9 C         139.4278  138.2174  164.4694 C.3     1  UNL1        0.0768
     10 C         138.3370  137.9737  165.4697 C.3     1  UNL1        0.0096
     11 C         139.4595  138.9130  165.7980 C.3     1  UNL1        0.0113
     12 C         140.7373  139.5960  165.4099 C.3     1  UNL1        0.0178
     13 C         141.4037  140.5399  166.3665 C.3     1  UNL1        0.0721
     14 N         140.7921  140.8008  167.7111 N.3     1  UNL1       -0.2738
     15 C         139.5143  140.1178  168.0991 C.3     1  UNL1        0.0721
     16 C         138.8480  139.1739  167.1426 C.3     1  UNL1        0.0178
     17 C         141.4585  141.7447  168.6677 C.3     1  UNL1        0.0625
     18 C         142.9163  141.5871  168.9838 C.3     1  UNL1        0.0481
     19 C         143.5827  142.5310  169.9404 C.3     1  UNL1        0.1435
     20 O         142.7912  143.6326  170.5808 O.3     1  UNL1       -0.3537
     21 C         141.3334  143.7902  170.2646 C.3     1  UNL1        0.1435
     22 C         140.6671  142.8463  169.3081 C.3     1  UNL1        0.0481
     23 C         138.3267  141.1927  158.3714 C.3     1  UNL1        0.0576
     24 C         137.1725  140.7357  157.5295 C.3     1  UNL1        0.0160
     25 C         136.7443  141.5447  156.3411 C.3     1  UNL1        0.0014
     26 C         137.4704  142.8107  155.9946 C.3     1  UNL1        0.0001
     27 C         138.6247  143.2677  156.8366 C.3     1  UNL1        0.0014
     28 C         139.0529  142.4587  158.0249 C.3     1  UNL1        0.0160
@<TRIPOS>BOND
     1     1     2    2
     2     2     9    1
     3     9    10    1
     4    10    11    1
     5    11    12    1
     6    12    13    1
     7    13    14    1
     8    14    17    1
     9    17    18    1
    10    18    19    1
    11    19    20    1
    12    20    21    1
    13    21    22    1
    14    14    15    1
    15    15    16    1
    16     2     3   am
    17     3     4    1
    18     4     5    1
    19     5     6    1
    20     6    23    1
    21    23    24    1
    22    24    25    1
    23    25    26    1
    24    26    27    1
    25    27    28    1
    26     6     7    1
    27     7     8    1
    28    11     9    1
    29    22    17    1
    30     8     3    1
    31    16    11    1
    32    28    23    1
@<TRIPOS>MOLECULE
*****
 28 32 0 0 0
SMALL
GASTEIGER

@<TRIPOS>ATOM
      1 O         143.9009  139.3864  158.7057 O.2     1  UNL1       -0.2749
      2 C         142.5539  138.7534  158.8921 C.2     1  UNL1        0.2252
      3 N         141.8750  138.8141  160.2284 N.am    1  UNL1       -0.2767
      4 C         140.5280  138.1810  160.4147 C.3     1  UNL1        0.1107
      5 C         139.8492  138.2418  161.7510 C.3     1  UNL1        0.0939
      6 N         140.5174  138.9356  162.9009 N.3     1  UNL1       -0.2711
      7 C         141.8645  139.5686  162.7144 C.3     1  UNL1        0.0939
      8 C         142.5432  139.5079  161.3782 C.3     1  UNL1        0.1107
      9 C         141.8857  138.0596  157.7423 C.3     1  UNL1        0.0768
     10 C         140.8186  138.0250  156.6886 C.3     1  UNL1        0.0096
     11 C         141.7953  136.8924  156.8044 C.3     1  UNL1        0.0113
     12 C         142.9752  136.2585  157.4796 C.3     1  UNL1        0.0178
     13 C         143.4869  134.9308  157.0049 C.3     1  UNL1        0.0721
     14 N         142.8187  134.2370  155.8551 N.3     1  UNL1       -0.2738
     15 C         141.6388  134.8709  155.1799 C.3     1  UNL1        0.0721
     16 C         141.1271  136.1986  155.6546 C.3     1  UNL1        0.0178
     17 C         143.3304  132.9093  155.3805 C.3     1  UNL1        0.0625
     18 C         142.8329  132.3320  154.0885 C.3     1  UNL1        0.0481
     19 C         143.3446  131.0042  153.6139 C.3     1  UNL1        0.1435
     20 O         144.3540  130.2538  154.4313 O.3     1  UNL1       -0.3537
     21 C         144.8515  130.8311  155.7233 C.3     1  UNL1        0.1435
     22 C         144.3398  132.1588  156.1978 C.3     1  UNL1        0.0481
     23 C         139.8386  138.9963  164.2371 C.3     1  UNL1        0.0576
     24 C         138.9448  137.8745  164.6759 C.3     1  UNL1        0.0160
     25 C         138.2660  137.9352  166.0122 C.3     1  UNL1        0.0014
     26 C         138.4810  139.1178  166.9096 C.3     1  UNL1        0.0001
     27 C         139.3748  140.2397  166.4707 C.3     1  UNL1        0.0014
     28 C         140.0536  140.1789  165.1345 C.3     1  UNL1        0.0160
@<TRIPOS>BOND
     1     1     2    2
     2     2     9    1
     3     9    10    1
     4    10    11    1
     5    11    12    1
     6    12    13    1
     7    13    14    1
     8    14    17    1
     9    17    18    1
    10    18    19    1
    11    19    20    1
    12    20    21    1
    13    21    22    1
    14    14    15    1
    15    15    16    1
    16     2     3   am
    17     3     4    1
    18     4     5    1
    19     5     6    1
    20     6    23    1
    21    23    24    1
    22    24    25    1
    23    25    26    1
    24    26    27    1
    25    27    28    1
    26     6     7    1
    27     7     8    1
    28    11     9    1
    29    22    17    1
    30     8     3    1
    31    16    11    1
    32    28    23    1
@<TRIPOS>MOLECULE
*****
 28 32 0 0 0
SMALL
GASTEIGER

@<TRIPOS>ATOM
      1 O         146.0013  141.7601  162.7805 O.2     1  UNL1       -0.2749
      2 C         144.5960  141.2360  162.7653 C.2     1  UNL1        0.2252
      3 N         143.6422  141.6780  161.6952 N.am    1  UNL1       -0.2767
      4 C         142.2369  141.1539  161.6799 C.3     1  UNL1        0.1107
      5 C         141.2831  141.5959  160.6098 C.3     1  UNL1        0.0939
      6 N         141.7348  142.5620  159.5550 N.3     1  UNL1       -0.2711
      7 C         143.1402  143.0861  159.5703 C.3     1  UNL1        0.0939
      8 C         144.0939  142.6441  160.6404 C.3     1  UNL1        0.1107
      9 C         144.1443  140.2699  163.8201 C.3     1  UNL1        0.0768
     10 C         143.9905  138.8609  164.3109 C.3     1  UNL1        0.0096
     11 C         143.5158  140.0055  165.1561 C.3     1  UNL1        0.0113
     12 C         143.3305  141.4799  165.3606 C.3     1  UNL1        0.0178
     13 C         142.6935  141.9882  166.6199 C.3     1  UNL1        0.0721
     14 N         142.2419  141.0220  167.6747 N.3     1  UNL1       -0.2738
     15 C         142.4271  139.5477  167.4702 C.3     1  UNL1        0.0721
     16 C         143.0641  139.0394  166.2109 C.3     1  UNL1        0.0178
     17 C         141.6049  141.5304  168.9341 C.3     1  UNL1        0.0625
     18 C         141.8078  140.7963  170.2264 C.3     1  UNL1        0.0481
     19 C         141.1709  141.3047  171.4858 C.3     1  UNL1        0.1435
     20 O         140.3309  142.5470  171.4528 O.3     1  UNL1       -0.3537
     21 C         140.1280  143.2810  170.1604 C.3     1  UNL1        0.1435
     22 C         140.7650  142.7727  168.9011 C.3     1  UNL1        0.0481
     23 C         140.7811  143.0040  158.4849 C.3     1  UNL1        0.0576
     24 C         139.4090  142.4028  158.4082 C.3     1  UNL1        0.0160
     25 C         138.4553  142.8448  157.3381 C.3     1  UNL1        0.0014
     26 C         138.8737  143.8881  156.3448 C.3     1  UNL1        0.0001
     27 C         140.2458  144.4893  156.4216 C.3     1  UNL1        0.0014
     28 C         141.1995  144.0472  157.4916 C.3     1  UNL1        0.0160
@<TRIPOS>BOND
     1     1     2    2
     2     2     9    1
     3     9    10    1
     4    10    11    1
     5    11    12    1
     6    12    13    1
     7    13    14    1
     8    14    17    1
     9    17    18    1
    10    18    19    1
    11    19    20    1
    12    20    21    1
    13    21    22    1
    14    14    15    1
    15    15    16    1
    16     2     3   am
    17     3     4    1
    18     4     5    1
    19     5     6    1
    20     6    23    1
    21    23    24    1
    22    24    25    1
    23    25    26    1
    24    26    27    1
    25    27    28    1
    26     6     7    1
    27     7     8    1
    28    11     9    1
    29    22    17    1
    30     8     3    1
    31    16    11    1
    32    28    23    1
@<TRIPOS>MOLECULE
*****
 28 32 0 0 0
SMALL
GASTEIGER

@<TRIPOS>ATOM
      1 O         142.1799  144.7017  161.3184 O.2     1  UNL1       -0.2749
      2 C         142.8752  143.4158  161.6543 C.2     1  UNL1        0.2252
      3 N         142.9383  142.3106  160.6421 N.am    1  UNL1       -0.2767
      4 C         143.6336  141.0247  160.9780 C.3     1  UNL1        0.1107
      5 C         143.6966  139.9195  159.9657 C.3     1  UNL1        0.0939
      6 N         143.0643  140.1003  158.6176 N.3     1  UNL1       -0.2711
      7 C         142.3689  141.3863  158.2817 C.3     1  UNL1        0.0939
      8 C         142.3059  142.4914  159.2939 C.3     1  UNL1        0.1107
      9 C         143.5076  143.2350  163.0025 C.3     1  UNL1        0.0768
     10 C         144.7307  143.2068  163.8703 C.3     1  UNL1        0.0096
     11 C         143.3797  142.9502  164.4696 C.3     1  UNL1        0.0113
     12 C         141.8936  142.8184  164.3145 C.3     1  UNL1        0.0178
     13 C         141.0399  142.5058  165.5075 C.3     1  UNL1        0.0721
     14 N         141.6722  142.3250  166.8556 N.3     1  UNL1       -0.2738
     15 C         143.1583  142.4568  167.0107 C.3     1  UNL1        0.0721
     16 C         144.0120  142.7694  165.8177 C.3     1  UNL1        0.0178
     17 C         140.8184  142.0124  168.0487 C.3     1  UNL1        0.0625
     18 C         140.6455  143.0321  169.1351 C.3     1  UNL1        0.0481
     19 C         139.7916  142.7195  170.3282 C.3     1  UNL1        0.1435
     20 O         139.1107  141.3872  170.4347 O.3     1  UNL1       -0.3537
     21 C         139.2836  140.3675  169.3482 C.3     1  UNL1        0.1435
     22 C         140.1374  140.6802  168.1552 C.3     1  UNL1        0.0481
     23 C         143.1273  138.9951  157.6053 C.3     1  UNL1        0.0576
     24 C         143.6648  139.2662  156.2315 C.3     1  UNL1        0.0160
     25 C         143.7278  138.1611  155.2192 C.3     1  UNL1        0.0014
     26 C         143.2533  136.7848  155.5808 C.3     1  UNL1        0.0001
     27 C         142.7158  136.5137  156.9547 C.3     1  UNL1        0.0014
     28 C         142.6528  137.6189  157.9670 C.3     1  UNL1        0.0160
@<TRIPOS>BOND
     1     1     2    2
     2     2     9    1
     3     9    10    1
     4    10    11    1
     5    11    12    1
     6    12    13    1
     7    13    14    1
     8    14    17    1
     9    17    18    1
    10    18    19    1
    11    19    20    1
    12    20    21    1
    13    21    22    1
    14    14    15    1
    15    15    16    1
    16     2     3   am
    17     3     4    1
    18     4     5    1
    19     5     6    1
    20     6    23    1
    21    23    24    1
    22    24    25    1
    23    25    26    1
    24    26    27    1
    25    27    28    1
    26     6     7    1
    27     7     8    1
    28    11     9    1
    29    22    17    1
    30     8     3    1
    31    16    11    1
    32    28    23    1
@<TRIPOS>MOLECULE
*****
 28 32 0 0 0
SMALL
GASTEIGER

@<TRIPOS>ATOM
      1 O         143.7424  142.7846  159.9989 O.2     1  UNL1       -0.2749
      2 C         143.7059  141.3869  160.5421 C.2     1  UNL1        0.2252
      3 N         143.3315  140.2436  159.6462 N.am    1  UNL1       -0.2767
      4 C         143.2950  138.8459  160.1894 C.3     1  UNL1        0.1107
      5 C         142.9205  137.7025  159.2935 C.3     1  UNL1        0.0939
      6 N         142.5826  137.9569  157.8544 N.3     1  UNL1       -0.2711
      7 C         142.6191  139.3547  157.3112 C.3     1  UNL1        0.0939
      8 C         142.9935  140.4980  158.2071 C.3     1  UNL1        0.1107
      9 C         144.0439  141.1325  161.9812 C.3     1  UNL1        0.0768
     10 C         145.0630  141.0218  163.0763 C.3     1  UNL1        0.0096
     11 C         143.6102  140.8026  163.3787 C.3     1  UNL1        0.0113
     12 C         142.1831  140.7400  162.9210 C.3     1  UNL1        0.0178
     13 C         141.0940  140.4229  163.9025 C.3     1  UNL1        0.0721
     14 N         141.4320  140.1685  165.3416 N.3     1  UNL1       -0.2738
     15 C         142.8591  140.2312  165.7993 C.3     1  UNL1        0.0721
     16 C         143.9482  140.5482  164.8178 C.3     1  UNL1        0.0178
     17 C         140.3428  139.8515  166.3231 C.3     1  UNL1        0.0625
     18 C         139.1318  139.0863  165.8782 C.3     1  UNL1        0.0481
     19 C         138.0426  138.7693  166.8597 C.3     1  UNL1        0.1435
     20 O         138.1645  139.2174  168.2860 O.3     1  UNL1       -0.3537
     21 C         139.3756  139.9826  168.7308 C.3     1  UNL1        0.1435
     22 C         140.4647  140.2996  167.7494 C.3     1  UNL1        0.0481
     23 C         142.2081  136.8137  156.9585 C.3     1  UNL1        0.0576
     24 C         142.9993  135.5399  156.9976 C.3     1  UNL1        0.0160
     25 C         142.6249  134.3966  156.1017 C.3     1  UNL1        0.0014
     26 C         141.4592  134.5271  155.1666 C.3     1  UNL1        0.0001
     27 C         140.6680  135.8009  155.1275 C.3     1  UNL1        0.0014
     28 C         141.0425  136.9442  156.0234 C.3     1  UNL1        0.0160
@<TRIPOS>BOND
     1     1     2    2
     2     2     9    1
     3     9    10    1
     4    10    11    1
     5    11    12    1
     6    12    13    1
     7    13    14    1
     8    14    17    1
     9    17    18    1
    10    18    19    1
    11    19    20    1
    12    20    21    1
    13    21    22    1
    14    14    15    1
    15    15    16    1
    16     2     3   am
    17     3     4    1
    18     4     5    1
    19     5     6    1
    20     6    23    1
    21    23    24    1
    22    24    25    1
    23    25    26    1
    24    26    27    1
    25    27    28    1
    26     6     7    1
    27     7     8    1
    28    11     9    1
    29    22    17    1
    30     8     3    1
    31    16    11    1
    32    28    23    1
@<TRIPOS>MOLECULE
*****
 28 32 0 0 0
SMALL
GASTEIGER

@<TRIPOS>ATOM
      1 O         138.5538  145.1369  162.2945 O.2     1  UNL1       -0.2749
      2 C         139.0516  143.7513  162.0080 C.2     1  UNL1        0.2252
      3 N         140.1083  143.5345  160.9656 N.am    1  UNL1       -0.2767
      4 C         140.6061  142.1489  160.6791 C.3     1  UNL1        0.1107
      5 C         141.6629  141.9321  159.6368 C.3     1  UNL1        0.0939
      6 N         142.2217  143.1011  158.8810 N.3     1  UNL1       -0.2711
      7 C         141.7239  144.4868  159.1676 C.3     1  UNL1        0.0939
      8 C         140.6672  144.7035  160.2098 C.3     1  UNL1        0.1107
      9 C         138.4927  142.5823  162.7637 C.3     1  UNL1        0.0768
     10 C         137.4807  141.4828  162.8928 C.3     1  UNL1        0.0096
     11 C         138.5367  141.6573  163.9437 C.3     1  UNL1        0.0113
     12 C         139.7307  142.3929  164.4758 C.3     1  UNL1        0.0178
     13 C         140.3658  141.9595  165.7637 C.3     1  UNL1        0.0721
     14 N         139.8069  140.7905  166.5195 N.3     1  UNL1       -0.2738
     15 C         138.6129  140.0550  165.9874 C.3     1  UNL1        0.0721
     16 C         137.9778  140.4883  164.6994 C.3     1  UNL1        0.0178
     17 C         140.4421  140.3572  167.8075 C.3     1  UNL1        0.0625
     18 C         141.8701  139.8984  167.8224 C.3     1  UNL1        0.0481
     19 C         142.5053  139.4650  169.1103 C.3     1  UNL1        0.1435
     20 O         141.7124  139.4905  170.3834 O.3     1  UNL1       -0.3537
     21 C         140.2843  139.9494  170.3685 C.3     1  UNL1        0.1435
     22 C         139.6492  140.3827  169.0805 C.3     1  UNL1        0.0481
     23 C         143.2784  142.8844  157.8387 C.3     1  UNL1        0.0576
     24 C         144.6563  142.4537  158.2459 C.3     1  UNL1        0.0160
     25 C         145.7131  142.2370  157.2036 C.3     1  UNL1        0.0014
     26 C         145.3919  142.4509  155.7541 C.3     1  UNL1        0.0001
     27 C         144.0139  142.8816  155.3469 C.3     1  UNL1        0.0014
     28 C         142.9572  143.0983  156.3892 C.3     1  UNL1        0.0160
@<TRIPOS>BOND
     1     1     2    2
     2     2     9    1
     3     9    10    1
     4    10    11    1
     5    11    12    1
     6    12    13    1
     7    13    14    1
     8    14    17    1
     9    17    18    1
    10    18    19    1
    11    19    20    1
    12    20    21    1
    13    21    22    1
    14    14    15    1
    15    15    16    1
    16     2     3   am
    17     3     4    1
    18     4     5    1
    19     5     6    1
    20     6    23    1
    21    23    24    1
    22    24    25    1
    23    25    26    1
    24    26    27    1
    25    27    28    1
    26     6     7    1
    27     7     8    1
    28    11     9    1
    29    22    17    1
    30     8     3    1
    31    16    11    1
    32    28    23    1
@<TRIPOS>MOLECULE
*****
 28 32 0 0 0
SMALL
GASTEIGER

@<TRIPOS>ATOM
      1 O         141.0382  136.8823  162.9567 O.2     1  UNL1       -0.2749
      2 C         140.2821  138.1555  163.1956 C.2     1  UNL1        0.2252
      3 N         140.6130  139.0132  164.3809 N.am    1  UNL1       -0.2767
      4 C         139.8570  140.2865  164.6198 C.3     1  UNL1        0.1107
      5 C         140.1879  141.1441  165.8052 C.3     1  UNL1        0.0939
      6 N         141.2749  140.7284  166.7516 N.3     1  UNL1       -0.2711
      7 C         142.0309  139.4551  166.5126 C.3     1  UNL1        0.0939
      8 C         141.7000  138.5975  165.3273 C.3     1  UNL1        0.1107
      9 C         139.1951  138.5712  162.2492 C.3     1  UNL1        0.0768
     10 C         137.8125  138.3872  161.6975 C.3     1  UNL1        0.0096
     11 C         138.6951  139.4753  161.1617 C.3     1  UNL1        0.0113
     12 C         140.0030  140.2097  161.1709 C.3     1  UNL1        0.0178
     13 C         140.2238  141.3598  160.2337 C.3     1  UNL1        0.0721
     14 N         139.1368  141.7755  159.2873 N.3     1  UNL1       -0.2738
     15 C         137.8290  141.0411  159.2781 C.3     1  UNL1        0.0721
     16 C         137.6082  139.8910  160.2153 C.3     1  UNL1        0.0178
     17 C         139.3578  142.9257  158.3501 C.3     1  UNL1        0.0625
     18 C         138.7765  142.8891  156.9678 C.3     1  UNL1        0.0481
     19 C         138.9974  144.0393  156.0306 C.3     1  UNL1        0.1435
     20 O         139.7996  145.2261  156.4757 O.3     1  UNL1       -0.3537
     21 C         140.3808  145.2626  157.8581 C.3     1  UNL1        0.1435
     22 C         140.1599  144.1125  158.7952 C.3     1  UNL1        0.0481
     23 C         141.6058  141.5860  167.9369 C.3     1  UNL1        0.0576
     24 C         142.9934  141.5751  168.5064 C.3     1  UNL1        0.0160
     25 C         143.3244  142.4327  169.6918 C.3     1  UNL1        0.0014
     26 C         142.2678  143.3012  170.3076 C.3     1  UNL1        0.0001
     27 C         140.8801  143.3121  169.7380 C.3     1  UNL1        0.0014
     28 C         140.5492  142.4545  168.5527 C.3     1  UNL1        0.0160
@<TRIPOS>BOND
     1     1     2    2
     2     2     9    1
     3     9    10    1
     4    10    11    1
     5    11    12    1
     6    12    13    1
     7    13    14    1
     8    14    17    1
     9    17    18    1
    10    18    19    1
    11    19    20    1
    12    20    21    1
    13    21    22    1
    14    14    15    1
    15    15    16    1
    16     2     3   am
    17     3     4    1
    18     4     5    1
    19     5     6    1
    20     6    23    1
    21    23    24    1
    22    24    25    1
    23    25    26    1
    24    26    27    1
    25    27    28    1
    26     6     7    1
    27     7     8    1
    28    11     9    1
    29    22    17    1
    30     8     3    1
    31    16    11    1
    32    28    23    1
@<TRIPOS>MOLECULE
*****
 28 32 0 0 0
SMALL
GASTEIGER

@<TRIPOS>ATOM
      1 O         142.6920  138.0194  162.3844 O.2     1  UNL1       -0.2749
      2 C         141.5441  138.9820  162.4599 C.2     1  UNL1        0.2252
      3 N         141.4779  140.1458  161.5157 N.am    1  UNL1       -0.2767
      4 C         140.3300  141.1084  161.5911 C.3     1  UNL1        0.1107
      5 C         140.2638  142.2722  160.6470 C.3     1  UNL1        0.0939
      6 N         141.3456  142.4733  159.6275 N.3     1  UNL1       -0.2711
      7 C         142.4935  141.5106  159.5521 C.3     1  UNL1        0.0939
      8 C         142.5596  140.3469  160.4962 C.3     1  UNL1        0.1107
      9 C         140.4623  138.7809  163.4794 C.3     1  UNL1        0.0768
     10 C         139.1388  138.1933  163.8704 C.3     1  UNL1        0.0096
     11 C         139.9123  139.0203  164.8542 C.3     1  UNL1        0.0113
     12 C         141.1230  139.8371  165.1963 C.3     1  UNL1        0.0178
     13 C         141.2519  140.4527  166.5581 C.3     1  UNL1        0.0721
     14 N         140.1702  140.2516  167.5776 N.3     1  UNL1       -0.2738
     15 C         138.9595  139.4349  167.2354 C.3     1  UNL1        0.0721
     16 C         138.8306  138.8192  165.8737 C.3     1  UNL1        0.0178
     17 C         140.2992  140.8673  168.9394 C.3     1  UNL1        0.0625
     18 C         140.7130  140.0230  170.1080 C.3     1  UNL1        0.0481
     19 C         140.8420  140.6387  171.4698 C.3     1  UNL1        0.1435
     20 O         140.5571  142.0987  171.6628 O.3     1  UNL1       -0.3537
     21 C         140.1433  142.9430  170.4940 C.3     1  UNL1        0.1435
     22 C         140.0143  142.3273  169.1324 C.3     1  UNL1        0.0481
     23 C         141.2794  143.6370  158.6834 C.3     1  UNL1        0.0576
     24 C         142.2522  143.7362  157.5460 C.3     1  UNL1        0.0160
     25 C         142.1861  144.8999  156.6018 C.3     1  UNL1        0.0014
     26 C         141.1472  145.9645  156.7951 C.3     1  UNL1        0.0001
     27 C         140.1744  145.8653  157.9326 C.3     1  UNL1        0.0014
     28 C         140.2405  144.7016  158.8767 C.3     1  UNL1        0.0160
@<TRIPOS>BOND
     1     1     2    2
     2     2     9    1
     3     9    10    1
     4    10    11    1
     5    11    12    1
     6    12    13    1
     7    13    14    1
     8    14    17    1
     9    17    18    1
    10    18    19    1
    11    19    20    1
    12    20    21    1
    13    21    22    1
    14    14    15    1
    15    15    16    1
    16     2     3   am
    17     3     4    1
    18     4     5    1
    19     5     6    1
    20     6    23    1
    21    23    24    1
    22    24    25    1
    23    25    26    1
    24    26    27    1
    25    27    28    1
    26     6     7    1
    27     7     8    1
    28    11     9    1
    29    22    17    1
    30     8     3    1
    31    16    11    1
    32    28    23    1
@<TRIPOS>MOLECULE
*****
 28 32 0 0 0
SMALL
GASTEIGER

@<TRIPOS>ATOM
      1 O         138.2511  137.9728  162.5124 O.2     1  UNL1       -0.2749
      2 C         139.4698  138.8459  162.4643 C.2     1  UNL1        0.2252
      3 N         139.5371  139.9869  161.4928 N.am    1  UNL1       -0.2767
      4 C         140.7558  140.8600  161.4447 C.3     1  UNL1        0.1107
      5 C         140.8232  142.0010  160.4731 C.3     1  UNL1        0.0939
      6 N         139.6718  142.2687  159.5497 N.3     1  UNL1       -0.2711
      7 C         138.4530  141.3954  159.5979 C.3     1  UNL1        0.0939
      8 C         138.3857  140.2546  160.5694 C.3     1  UNL1        0.1107
      9 C         140.6212  138.5782  163.3877 C.3     1  UNL1        0.0768
     10 C         141.9049  137.8637  163.6900 C.3     1  UNL1        0.0096
     11 C         141.3316  138.8291  164.6847 C.3     1  UNL1        0.0113
     12 C         140.2595  139.7990  165.0844 C.3     1  UNL1        0.0178
     13 C         140.3388  140.5012  166.4074 C.3     1  UNL1        0.0721
     14 N         141.4902  140.2335  167.3308 N.3     1  UNL1       -0.2738
     15 C         142.5623  139.2636  166.9311 C.3     1  UNL1        0.0721
     16 C         142.4830  138.5614  165.6081 C.3     1  UNL1        0.0178
     17 C         141.5694  140.9358  168.6540 C.3     1  UNL1        0.0625
     18 C         140.8555  140.3716  169.8464 C.3     1  UNL1        0.0481
     19 C         140.9347  141.0739  171.1696 C.3     1  UNL1        0.1435
     20 O         141.7279  142.3403  171.3001 O.3     1  UNL1       -0.3537
     21 C         142.4418  142.9045  170.1076 C.3     1  UNL1        0.1435
     22 C         142.3625  142.2022  168.7845 C.3     1  UNL1        0.0481
     23 C         139.7391  143.4095  158.5782 C.3     1  UNL1        0.0576
     24 C         139.1671  143.2558  157.2002 C.3     1  UNL1        0.0160
     25 C         139.2344  144.3967  156.2286 C.3     1  UNL1        0.0014
     26 C         139.8736  145.6913  156.6352 C.3     1  UNL1        0.0001
     27 C         140.4456  145.8450  158.0133 C.3     1  UNL1        0.0014
     28 C         140.3783  144.7042  158.9848 C.3     1  UNL1        0.0160
@<TRIPOS>BOND
     1     1     2    2
     2     2     9    1
     3     9    10    1
     4    10    11    1
     5    11    12    1
     6    12    13    1
     7    13    14    1
     8    14    17    1
     9    17    18    1
    10    18    19    1
    11    19    20    1
    12    20    21    1
    13    21    22    1
    14    14    15    1
    15    15    16    1
    16     2     3   am
    17     3     4    1
    18     4     5    1
    19     5     6    1
    20     6    23    1
    21    23    24    1
    22    24    25    1
    23    25    26    1
    24    26    27    1
    25    27    28    1
    26     6     7    1
    27     7     8    1
    28    11     9    1
    29    22    17    1
    30     8     3    1
    31    16    11    1
    32    28    23    1
