@<TRIPOS>MOLECULE
*****
 31 35 0 0 0
SMALL
GASTEIGER

@<TRIPOS>ATOM
      1 C         138.4818  141.1552  163.1360 C.2     1  UNL1        0.2506
      2 O         137.0360  141.4738  162.8948 O.2     1  UNL1       -0.2699
      3 N         139.3015  140.5225  162.0507 N.am    1  UNL1       -0.2759
      4 C         138.8155  140.1527  160.6807 C.3     1  UNL1        0.0955
      5 C         139.9648  139.5502  159.9283 C.3     1  UNL1        0.0430
      6 C         140.3748  138.9493  158.6165 C.3     1  UNL1        0.0954
      7 N         141.8244  138.5753  158.7107 N.pl3   1  UNL1       -0.2781
      8 C         142.3103  138.9451  160.0809 C.3     1  UNL1        0.0954
      9 C         141.1610  139.5476  160.8333 C.3     1  UNL1        0.0430
     10 C         140.7511  140.1486  162.1451 C.3     1  UNL1        0.0955
     11 C         142.6441  137.9426  157.6256 C.ar    1  UNL1        0.2195
     12 N         143.3917  138.8041  156.6514 N.ar    1  UNL1       -0.2180
     13 C         144.2114  138.1714  155.5661 C.ar    1  UNL1        0.0634
     14 C         144.9590  139.0328  154.5919 C.3     1  UNL1        0.0522
     15 C         144.2836  136.6773  155.4551 C.ar    1  UNL1        0.0296
     16 C         143.5360  135.8158  156.4293 C.ar    1  UNL1        0.0634
     17 C         143.6083  134.3216  156.3183 C.3     1  UNL1        0.0522
     18 N         142.7163  136.4484  157.5145 N.ar    1  UNL1       -0.2180
     19 C         139.6268  140.8037  166.9196 C.ar    1  UNL1        0.1390
     20 C         140.3600  142.0976  167.1153 C.ar    1  UNL1        0.0385
     21 C         140.4671  143.0774  165.9844 C.ar    1  UNL1        0.0242
     22 C         139.8410  142.7633  164.6580 C.ar    1  UNL1        0.1074
     23 C         139.1078  141.4693  164.4624 C.ar    1  UNL1        0.0759
     24 C         139.0007  140.4896  165.5932 C.ar    1  UNL1        0.0430
     25 N         139.9481  143.7431  163.5273 N.ar    1  UNL1       -0.1477
     26 N         139.0284  144.9004  163.2734 N.ar    1  UNL1       -0.1447
     27 C         139.5057  145.6102  162.0411 C.ar    1  UNL1        0.1446
     28 C         140.7204  144.8913  161.5335 C.ar    1  UNL1        0.1446
     29 N         140.9939  143.7374  162.4519 N.ar    1  UNL1       -0.1447
     30 C         139.4177  140.3174  169.4631 C.3     1  UNL1        0.2525
     31 O         139.5197  139.8239  168.0503 O.3     1  UNL1       -0.4714
@<TRIPOS>BOND
     1    30    31    1
     2    31    19    1
     3    19    20   ar
     4    20    21   ar
     5    21    22   ar
     6    22    25    1
     7    25    26   ar
     8    26    27   ar
     9    27    28   ar
    10    28    29   ar
    11    22    23   ar
    12    23     1    1
    13     1     2    2
    14     1     3   am
    15     3     4    1
    16     5     4    1
    17     5     6    1
    18     6     7    1
    19     7    11    1
    20    11    12   ar
    21    12    13   ar
    22    13    14    1
    23    13    15   ar
    24    15    16   ar
    25    16    17    1
    26    16    18   ar
    27     7     8    1
    28     9     8    1
    29     9    10    1
    30    23    24   ar
    31    24    19   ar
    32    29    25   ar
    33    10     3    1
    34     9     5    1
    35    18    11   ar
@<TRIPOS>MOLECULE
*****
 31 35 0 0 0
SMALL
GASTEIGER

@<TRIPOS>ATOM
      1 C         138.4903  141.1674  163.1245 C.2     1  UNL1        0.2506
      2 O         137.0462  141.4923  162.8818 O.2     1  UNL1       -0.2699
      3 N         139.3085  140.5313  162.0401 N.am    1  UNL1       -0.2759
      4 C         138.8225  140.1638  160.6694 C.3     1  UNL1        0.0955
      5 C         139.9700  139.5565  159.9182 C.3     1  UNL1        0.0430
      6 C         140.3789  138.9540  158.6068 C.3     1  UNL1        0.0954
      7 N         141.8267  138.5737  158.7027 N.pl3   1  UNL1       -0.2781
      8 C         142.3127  138.9412  160.0734 C.3     1  UNL1        0.0954
      9 C         141.1652  139.5485  160.8246 C.3     1  UNL1        0.0430
     10 C         140.7563  140.1510  162.1361 C.3     1  UNL1        0.0955
     11 C         142.6449  137.9376  157.6183 C.ar    1  UNL1        0.2195
     12 N         142.7195  136.4432  157.5137 N.ar    1  UNL1       -0.2180
     13 C         143.5377  135.8070  156.4293 C.ar    1  UNL1        0.0634
     14 C         143.6123  134.3125  156.3247 C.3     1  UNL1        0.0522
     15 C         144.2814  136.6655  155.4495 C.ar    1  UNL1        0.0296
     16 C         144.2068  138.1600  155.5541 C.ar    1  UNL1        0.0634
     17 C         144.9506  139.0184  154.5742 C.3     1  UNL1        0.0522
     18 N         143.3887  138.7961  156.6385 N.ar    1  UNL1       -0.2180
     19 C         139.6422  140.8038  166.9049 C.ar    1  UNL1        0.1390
     20 C         140.3681  142.1010  167.1061 C.ar    1  UNL1        0.0385
     21 C         140.4679  143.0870  165.9800 C.ar    1  UNL1        0.0242
     22 C         139.8420  142.7758  164.6528 C.ar    1  UNL1        0.1074
     23 C         139.1162  141.4785  164.4517 C.ar    1  UNL1        0.0759
     24 C         139.0163  140.4926  165.5777 C.ar    1  UNL1        0.0430
     25 N         139.9420  143.7618  163.5269 N.ar    1  UNL1       -0.1477
     26 N         139.0202  144.9201  163.2849 N.ar    1  UNL1       -0.1447
     27 C         139.4898  145.6368  162.0536 C.ar    1  UNL1        0.1446
     28 C         140.7018  144.9213  161.5348 C.ar    1  UNL1        0.1446
     29 N         140.9812  143.7625  162.4453 N.ar    1  UNL1       -0.1447
     30 C         139.3271  140.3014  169.4343 C.3     1  UNL1        0.2525
     31 O         139.5423  139.8178  168.0308 O.3     1  UNL1       -0.4714
@<TRIPOS>BOND
     1    30    31    1
     2    31    19    1
     3    19    20   ar
     4    20    21   ar
     5    21    22   ar
     6    22    25    1
     7    25    26   ar
     8    26    27   ar
     9    27    28   ar
    10    28    29   ar
    11    22    23   ar
    12    23     1    1
    13     1     2    2
    14     1     3   am
    15     3     4    1
    16     5     4    1
    17     5     6    1
    18     6     7    1
    19     7    11    1
    20    11    12   ar
    21    12    13   ar
    22    13    14    1
    23    13    15   ar
    24    15    16   ar
    25    16    17    1
    26    16    18   ar
    27     7     8    1
    28     9     8    1
    29     9    10    1
    30    23    24   ar
    31    24    19   ar
    32    29    25   ar
    33    10     3    1
    34     9     5    1
    35    18    11   ar
@<TRIPOS>MOLECULE
*****
 31 35 0 0 0
SMALL
GASTEIGER

@<TRIPOS>ATOM
      1 C         143.3296  142.5597  163.6723 C.2     1  UNL1        0.2506
      2 O         144.4461  143.5566  163.5748 O.2     1  UNL1       -0.2699
      3 N         143.0652  141.6162  162.5366 N.am    1  UNL1       -0.2759
      4 C         143.8294  141.5522  161.2474 C.3     1  UNL1        0.0955
      5 C         143.2267  140.4675  160.4047 C.3     1  UNL1        0.0430
      6 C         143.3265  139.7576  159.0872 C.3     1  UNL1        0.0954
      7 N         142.2515  138.7123  159.0412 N.pl3   1  UNL1       -0.2781
      8 C         141.4874  138.7763  160.3304 C.3     1  UNL1        0.0954
      9 C         142.0901  139.8611  161.1731 C.3     1  UNL1        0.0430
     10 C         141.9903  140.5710  162.4907 C.3     1  UNL1        0.0955
     11 C         141.9871  137.7689  157.9055 C.ar    1  UNL1        0.2195
     12 N         140.6898  137.8420  157.1561 N.ar    1  UNL1       -0.2180
     13 C         140.4254  136.8985  156.0204 C.ar    1  UNL1        0.0634
     14 C         139.1281  136.9717  155.2710 C.3     1  UNL1        0.0522
     15 C         141.4583  135.8818  155.6340 C.ar    1  UNL1        0.0296
     16 C         142.7557  135.8086  156.3834 C.ar    1  UNL1        0.0634
     17 C         143.7887  134.7918  155.9970 C.3     1  UNL1        0.0522
     18 N         143.0201  136.7521  157.5191 N.ar    1  UNL1       -0.2180
     19 C         142.1031  141.7062  167.3489 C.ar    1  UNL1        0.1390
     20 C         140.7731  142.3995  167.3722 C.ar    1  UNL1        0.0385
     21 C         140.2953  143.1462  166.1621 C.ar    1  UNL1        0.0242
     22 C         141.1475  143.1996  164.9288 C.ar    1  UNL1        0.1074
     23 C         142.4775  142.5063  164.9056 C.ar    1  UNL1        0.0759
     24 C         142.9552  141.7596  166.1156 C.ar    1  UNL1        0.0430
     25 N         140.6696  143.9463  163.7189 N.ar    1  UNL1       -0.1477
     26 N         139.7461  143.4153  162.6629 N.ar    1  UNL1       -0.1447
     27 C         139.5372  144.4960  161.6438 C.ar    1  UNL1        0.1446
     28 C         140.3315  145.6949  162.0701 C.ar    1  UNL1        0.1446
     29 N         141.0314  145.3552  163.3525 N.ar    1  UNL1       -0.1447
     30 C         142.5367  139.4603  168.5809 C.3     1  UNL1        0.2525
     31 O         142.5809  140.9595  168.5589 O.3     1  UNL1       -0.4714
@<TRIPOS>BOND
     1    30    31    1
     2    31    19    1
     3    19    20   ar
     4    20    21   ar
     5    21    22   ar
     6    22    25    1
     7    25    26   ar
     8    26    27   ar
     9    27    28   ar
    10    28    29   ar
    11    22    23   ar
    12    23     1    1
    13     1     2    2
    14     1     3   am
    15     3     4    1
    16     5     4    1
    17     5     6    1
    18     6     7    1
    19     7    11    1
    20    11    12   ar
    21    12    13   ar
    22    13    14    1
    23    13    15   ar
    24    15    16   ar
    25    16    17    1
    26    16    18   ar
    27     7     8    1
    28     9     8    1
    29     9    10    1
    30    23    24   ar
    31    24    19   ar
    32    29    25   ar
    33    10     3    1
    34     9     5    1
    35    18    11   ar
@<TRIPOS>MOLECULE
*****
 31 35 0 0 0
SMALL
GASTEIGER

@<TRIPOS>ATOM
      1 C         141.2450  141.3239  163.3331 C.2     1  UNL1        0.2506
      2 O         142.1231  141.1792  164.5406 O.2     1  UNL1       -0.2699
      3 N         141.4874  140.4715  162.1229 N.am    1  UNL1       -0.2759
      4 C         142.5635  139.4371  161.9743 C.3     1  UNL1        0.0955
      5 C         142.4374  138.8301  160.6084 C.3     1  UNL1        0.0430
      6 C         143.0245  137.8157  159.6723 C.3     1  UNL1        0.0954
      7 N         142.2334  137.8480  158.3982 N.pl3   1  UNL1       -0.2781
      8 C         141.1573  138.8824  158.5469 C.3     1  UNL1        0.0954
      9 C         141.2834  139.4894  159.9129 C.3     1  UNL1        0.0430
     10 C         140.6963  140.5038  160.8489 C.3     1  UNL1        0.0955
     11 C         142.4758  136.9956  157.1881 C.ar    1  UNL1        0.2195
     12 N         143.0979  135.6391  157.3385 N.ar    1  UNL1       -0.2180
     13 C         143.3403  134.7866  156.1283 C.ar    1  UNL1        0.0634
     14 C         143.9625  133.4300  156.2788 C.3     1  UNL1        0.0522
     15 C         142.9606  135.2908  154.7676 C.ar    1  UNL1        0.0296
     16 C         142.3384  136.6474  154.6171 C.ar    1  UNL1        0.0634
     17 C         141.9586  137.1515  153.2563 C.3     1  UNL1        0.0522
     18 N         142.0960  137.4998  155.8272 N.ar    1  UNL1       -0.2180
     19 C         139.0930  144.5491  162.4862 C.ar    1  UNL1        0.1390
     20 C         137.8832  144.3153  163.3416 C.ar    1  UNL1        0.0385
     21 C         137.7940  143.0843  164.1942 C.ar    1  UNL1        0.0242
     22 C         138.9146  142.0872  164.1914 C.ar    1  UNL1        0.1074
     23 C         140.1244  142.3210  163.3359 C.ar    1  UNL1        0.0759
     24 C         140.2136  143.5519  162.4834 C.ar    1  UNL1        0.0430
     25 N         138.8253  140.8563  165.0439 N.ar    1  UNL1       -0.1477
     26 N         139.2889  140.7326  166.4651 N.ar    1  UNL1       -0.1447
     27 C         139.0068  139.3328  166.9245 C.ar    1  UNL1        0.1446
     28 C         138.3690  138.5914  165.7872 C.ar    1  UNL1        0.1446
     29 N         138.2568  139.5330  164.6250 N.ar    1  UNL1       -0.1447
     30 C         140.1017  145.8065  160.4487 C.3     1  UNL1        0.2525
     31 O         139.1823  145.7800  161.6336 O.3     1  UNL1       -0.4714
@<TRIPOS>BOND
     1    30    31    1
     2    31    19    1
     3    19    20   ar
     4    20    21   ar
     5    21    22   ar
     6    22    25    1
     7    25    26   ar
     8    26    27   ar
     9    27    28   ar
    10    28    29   ar
    11    22    23   ar
    12    23     1    1
    13     1     2    2
    14     1     3   am
    15     3     4    1
    16     5     4    1
    17     5     6    1
    18     6     7    1
    19     7    11    1
    20    11    12   ar
    21    12    13   ar
    22    13    14    1
    23    13    15   ar
    24    15    16   ar
    25    16    17    1
    26    16    18   ar
    27     7     8    1
    28     9     8    1
    29     9    10    1
    30    23    24   ar
    31    24    19   ar
    32    29    25   ar
    33    10     3    1
    34     9     5    1
    35    18    11   ar
@<TRIPOS>MOLECULE
*****
 31 35 0 0 0
SMALL
GASTEIGER

@<TRIPOS>ATOM
      1 C         138.6196  142.0241  163.4501 C.2     1  UNL1        0.2506
      2 O         137.7576  143.2513  163.4186 O.2     1  UNL1       -0.2699
      3 N         138.8461  141.2343  162.1951 N.am    1  UNL1       -0.2759
      4 C         138.2799  141.5475  160.8419 C.3     1  UNL1        0.0955
      5 C         138.7625  140.4994  159.8836 C.3     1  UNL1        0.0430
      6 C         138.7108  140.0452  158.4549 C.3     1  UNL1        0.0954
      7 N         139.5434  138.8034  158.3329 N.pl3   1  UNL1       -0.2781
      8 C         140.1096  138.4902  159.6862 C.3     1  UNL1        0.0954
      9 C         139.6270  139.5383  160.6445 C.3     1  UNL1        0.0430
     10 C         139.6787  139.9925  162.0732 C.3     1  UNL1        0.0955
     11 C         139.7699  138.0136  157.0780 C.ar    1  UNL1        0.2195
     12 N         138.7648  138.0678  155.9659 N.ar    1  UNL1       -0.2180
     13 C         138.9913  137.2780  154.7109 C.ar    1  UNL1        0.0634
     14 C         137.9862  137.3323  153.5988 C.3     1  UNL1        0.0522
     15 C         140.2230  136.4339  154.5681 C.ar    1  UNL1        0.0296
     16 C         141.2282  136.3796  155.6803 C.ar    1  UNL1        0.0634
     17 C         142.4599  135.5355  155.5374 C.3     1  UNL1        0.0522
     18 N         141.0016  137.1694  156.9351 N.ar    1  UNL1       -0.2180
     19 C         139.2215  140.1119  166.8752 C.ar    1  UNL1        0.1390
     20 C         140.5259  140.7120  167.3095 C.ar    1  UNL1        0.0385
     21 C         141.1948  141.7495  166.4572 C.ar    1  UNL1        0.0242
     22 C         140.5594  142.1869  165.1707 C.ar    1  UNL1        0.1074
     23 C         139.2550  141.5867  164.7365 C.ar    1  UNL1        0.0759
     24 C         138.5861  140.5493  165.5887 C.ar    1  UNL1        0.0430
     25 N         141.2283  143.2243  164.3186 N.ar    1  UNL1       -0.1477
     26 N         142.3652  142.9864  163.3694 N.ar    1  UNL1       -0.1447
     27 C         142.7173  144.2969  162.7302 C.ar    1  UNL1        0.1446
     28 C         141.7980  145.3447  163.2843 C.ar    1  UNL1        0.1446
     29 N         140.8778  144.6818  164.2659 N.ar    1  UNL1       -0.1447
     30 C         137.4454  138.2372  167.1590 C.3     1  UNL1        0.2525
     31 O         138.5526  139.0745  167.7274 O.3     1  UNL1       -0.4714
@<TRIPOS>BOND
     1    30    31    1
     2    31    19    1
     3    19    20   ar
     4    20    21   ar
     5    21    22   ar
     6    22    25    1
     7    25    26   ar
     8    26    27   ar
     9    27    28   ar
    10    28    29   ar
    11    22    23   ar
    12    23     1    1
    13     1     2    2
    14     1     3   am
    15     3     4    1
    16     5     4    1
    17     5     6    1
    18     6     7    1
    19     7    11    1
    20    11    12   ar
    21    12    13   ar
    22    13    14    1
    23    13    15   ar
    24    15    16   ar
    25    16    17    1
    26    16    18   ar
    27     7     8    1
    28     9     8    1
    29     9    10    1
    30    23    24   ar
    31    24    19   ar
    32    29    25   ar
    33    10     3    1
    34     9     5    1
    35    18    11   ar
@<TRIPOS>MOLECULE
*****
 31 35 0 0 0
SMALL
GASTEIGER

@<TRIPOS>ATOM
      1 C         144.3246  141.8778  162.8480 C.2     1  UNL1        0.2506
      2 O         145.8064  141.7866  162.6337 O.2     1  UNL1       -0.2699
      3 N         143.4407  142.4098  161.7591 N.am    1  UNL1       -0.2759
      4 C         143.8925  142.8858  160.4103 C.3     1  UNL1        0.0955
      5 C         142.6807  143.3293  159.6455 C.3     1  UNL1        0.0430
      6 C         142.2110  143.8976  158.3392 C.3     1  UNL1        0.0954
      7 N         140.7200  144.0471  158.4080 N.pl3   1  UNL1       -0.2781
      8 C         140.2683  143.5711  159.7569 C.3     1  UNL1        0.0954
      9 C         141.4800  143.1275  160.5216 C.3     1  UNL1        0.0430
     10 C         141.9497  142.5592  161.8280 C.3     1  UNL1        0.0955
     11 C         139.8361  144.5790  157.3192 C.ar    1  UNL1        0.2195
     12 N         139.9545  146.0113  156.8896 N.ar    1  UNL1       -0.2180
     13 C         139.0705  146.5433  155.8007 C.ar    1  UNL1        0.0634
     14 C         139.1889  147.9756  155.3712 C.3     1  UNL1        0.0522
     15 C         138.0682  145.6430  155.1414 C.ar    1  UNL1        0.0296
     16 C         137.9498  144.2106  155.5710 C.ar    1  UNL1        0.0634
     17 C         136.9474  143.3103  154.9117 C.3     1  UNL1        0.0522
     18 N         138.8337  143.6787  156.6598 N.ar    1  UNL1       -0.2180
     19 C         143.2487  141.8697  166.6680 C.ar    1  UNL1        0.1390
     20 C         142.5310  140.5555  166.7576 C.ar    1  UNL1        0.0385
     21 C         142.4113  139.6821  165.5439 C.ar    1  UNL1        0.0242
     22 C         143.0092  140.1229  164.2407 C.ar    1  UNL1        0.1074
     23 C         143.7268  141.4371  164.1512 C.ar    1  UNL1        0.0759
     24 C         143.8465  142.3104  165.3648 C.ar    1  UNL1        0.0430
     25 N         142.8894  139.2495  163.0271 N.ar    1  UNL1       -0.1477
     26 N         144.0121  138.5179  162.3531 N.ar    1  UNL1       -0.1447
     27 C         143.4424  137.7706  161.1839 C.ar    1  UNL1        0.1446
     28 C         141.9677  138.0403  161.1354 C.ar    1  UNL1        0.1446
     29 N         141.6259  138.9543  162.2745 N.ar    1  UNL1       -0.1447
     30 C         142.9401  142.2261  169.2229 C.3     1  UNL1        0.2525
     31 O         143.3684  142.7431  167.8815 O.3     1  UNL1       -0.4714
@<TRIPOS>BOND
     1    30    31    1
     2    31    19    1
     3    19    20   ar
     4    20    21   ar
     5    21    22   ar
     6    22    25    1
     7    25    26   ar
     8    26    27   ar
     9    27    28   ar
    10    28    29   ar
    11    22    23   ar
    12    23     1    1
    13     1     2    2
    14     1     3   am
    15     3     4    1
    16     5     4    1
    17     5     6    1
    18     6     7    1
    19     7    11    1
    20    11    12   ar
    21    12    13   ar
    22    13    14    1
    23    13    15   ar
    24    15    16   ar
    25    16    17    1
    26    16    18   ar
    27     7     8    1
    28     9     8    1
    29     9    10    1
    30    23    24   ar
    31    24    19   ar
    32    29    25   ar
    33    10     3    1
    34     9     5    1
    35    18    11   ar
@<TRIPOS>MOLECULE
*****
 31 35 0 0 0
SMALL
GASTEIGER

@<TRIPOS>ATOM
      1 C         139.9662  140.2051  164.4963 C.2     1  UNL1        0.2506
      2 O         138.4778  140.3014  164.6554 O.2     1  UNL1       -0.2699
      3 N         140.5526  139.7237  163.2023 N.am    1  UNL1       -0.2759
      4 C         139.7807  139.3058  161.9860 C.3     1  UNL1        0.0955
      5 C         140.7649  138.8995  160.9294 C.3     1  UNL1        0.0430
      6 C         140.8961  138.3901  159.5247 C.3     1  UNL1        0.0954
      7 N         142.3573  138.2421  159.2198 N.pl3   1  UNL1       -0.2781
      8 C         143.1292  138.6600  160.4363 C.3     1  UNL1        0.0954
      9 C         142.1450  139.0663  161.4928 C.3     1  UNL1        0.0430
     10 C         142.0138  139.5757  162.8975 C.3     1  UNL1        0.0955
     11 C         142.9437  137.7607  157.9259 C.ar    1  UNL1        0.2195
     12 N         143.5746  138.7379  156.9788 N.ar    1  UNL1       -0.2180
     13 C         144.1610  138.2565  155.6848 C.ar    1  UNL1        0.0634
     14 C         144.7920  139.2337  154.7377 C.3     1  UNL1        0.0522
     15 C         144.1165  136.7979  155.3379 C.ar    1  UNL1        0.0296
     16 C         143.4855  135.8206  156.2850 C.ar    1  UNL1        0.0634
     17 C         143.4410  134.3619  155.9380 C.3     1  UNL1        0.0522
     18 N         142.8992  136.3020  157.5789 N.ar    1  UNL1       -0.2180
     19 C         142.3737  139.9144  167.6379 C.ar    1  UNL1        0.1390
     20 C         142.6724  141.3606  167.9010 C.ar    1  UNL1        0.0385
     21 C         142.0689  142.4217  167.0291 C.ar    1  UNL1        0.0242
     22 C         141.1669  142.0365  165.8942 C.ar    1  UNL1        0.1074
     23 C         140.8682  140.5902  165.6312 C.ar    1  UNL1        0.0759
     24 C         141.4716  139.5292  166.5030 C.ar    1  UNL1        0.0430
     25 N         140.5635  143.0976  165.0224 N.ar    1  UNL1       -0.1477
     26 N         141.1920  143.6963  163.7991 N.ar    1  UNL1       -0.1447
     27 C         140.2426  144.7150  163.2415 C.ar    1  UNL1        0.1446
     28 C         139.0274  144.7459  164.1203 C.ar    1  UNL1        0.1446
     29 N         139.2257  143.7463  165.2209 N.ar    1  UNL1       -0.1447
     30 C         142.5979  138.7678  169.9585 C.3     1  UNL1        0.2525
     31 O         142.9770  138.8533  168.5097 O.3     1  UNL1       -0.4714
@<TRIPOS>BOND
     1    30    31    1
     2    31    19    1
     3    19    20   ar
     4    20    21   ar
     5    21    22   ar
     6    22    25    1
     7    25    26   ar
     8    26    27   ar
     9    27    28   ar
    10    28    29   ar
    11    22    23   ar
    12    23     1    1
    13     1     2    2
    14     1     3   am
    15     3     4    1
    16     5     4    1
    17     5     6    1
    18     6     7    1
    19     7    11    1
    20    11    12   ar
    21    12    13   ar
    22    13    14    1
    23    13    15   ar
    24    15    16   ar
    25    16    17    1
    26    16    18   ar
    27     7     8    1
    28     9     8    1
    29     9    10    1
    30    23    24   ar
    31    24    19   ar
    32    29    25   ar
    33    10     3    1
    34     9     5    1
    35    18    11   ar
@<TRIPOS>MOLECULE
*****
 31 35 0 0 0
SMALL
GASTEIGER

@<TRIPOS>ATOM
      1 C         141.2865  143.1238  164.4611 C.2     1  UNL1        0.2506
      2 O         140.6864  144.4855  164.6505 O.2     1  UNL1       -0.2699
      3 N         141.9556  142.7727  163.1653 N.am    1  UNL1       -0.2759
      4 C         142.1008  143.6744  161.9754 C.3     1  UNL1        0.0955
      5 C         142.8319  142.9172  160.9066 C.3     1  UNL1        0.0430
      6 C         143.3735  143.0065  159.5107 C.3     1  UNL1        0.0954
      7 N         144.0149  141.6921  159.1773 N.pl3   1  UNL1       -0.2781
      8 C         143.8696  140.7905  160.3674 C.3     1  UNL1        0.0954
      9 C         143.1385  141.5476  161.4361 C.3     1  UNL1        0.0430
     10 C         142.5969  141.4584  162.8320 C.3     1  UNL1        0.0955
     11 C         144.6840  141.3410  157.8816 C.ar    1  UNL1        0.2195
     12 N         144.3118  140.0777  157.1635 N.ar    1  UNL1       -0.2180
     13 C         144.9809  139.7265  155.8677 C.ar    1  UNL1        0.0634
     14 C         144.6087  138.4633  155.1496 C.3     1  UNL1        0.0522
     15 C         146.0222  140.6387  155.2901 C.ar    1  UNL1        0.0296
     16 C         146.3944  141.9020  156.0082 C.ar    1  UNL1        0.0634
     17 C         147.4357  142.8142  155.4304 C.3     1  UNL1        0.0522
     18 N         145.7253  142.2531  157.3039 N.ar    1  UNL1       -0.2180
     19 C         142.1538  141.1390  167.7865 C.ar    1  UNL1        0.1390
     20 C         141.0794  140.0923  167.7803 C.ar    1  UNL1        0.0385
     21 C         140.0740  140.0561  166.6676 C.ar    1  UNL1        0.0242
     22 C         140.1430  141.0666  165.5612 C.ar    1  UNL1        0.1074
     23 C         141.2175  142.1133  165.5675 C.ar    1  UNL1        0.0759
     24 C         142.2228  142.1495  166.6801 C.ar    1  UNL1        0.0430
     25 N         139.1376  141.0304  164.4486 N.ar    1  UNL1       -0.1477
     26 N         137.9355  141.9179  164.3173 N.ar    1  UNL1       -0.1447
     27 C         137.2128  141.5363  163.0595 C.ar    1  UNL1        0.1446
     28 C         137.9683  140.4129  162.4135 C.ar    1  UNL1        0.1446
     29 N         139.1579  140.1003  163.2720 N.ar    1  UNL1       -0.1447
     30 C         142.7544  140.7817  170.2887 C.3     1  UNL1        0.2525
     31 O         143.1592  141.1752  168.8990 O.3     1  UNL1       -0.4714
@<TRIPOS>BOND
     1    30    31    1
     2    31    19    1
     3    19    20   ar
     4    20    21   ar
     5    21    22   ar
     6    22    25    1
     7    25    26   ar
     8    26    27   ar
     9    27    28   ar
    10    28    29   ar
    11    22    23   ar
    12    23     1    1
    13     1     2    2
    14     1     3   am
    15     3     4    1
    16     5     4    1
    17     5     6    1
    18     6     7    1
    19     7    11    1
    20    11    12   ar
    21    12    13   ar
    22    13    14    1
    23    13    15   ar
    24    15    16   ar
    25    16    17    1
    26    16    18   ar
    27     7     8    1
    28     9     8    1
    29     9    10    1
    30    23    24   ar
    31    24    19   ar
    32    29    25   ar
    33    10     3    1
    34     9     5    1
    35    18    11   ar
@<TRIPOS>MOLECULE
*****
 31 35 0 0 0
SMALL
GASTEIGER

@<TRIPOS>ATOM
      1 C         142.9497  143.5656  164.0121 C.2     1  UNL1        0.2506
      2 O         143.4752  144.9705  164.0009 O.2     1  UNL1       -0.2699
      3 N         143.0754  142.7080  162.7879 N.am    1  UNL1       -0.2759
      4 C         143.6989  143.1159  161.4860 C.3     1  UNL1        0.0955
      5 C         143.6085  141.9520  160.5441 C.3     1  UNL1        0.0430
      6 C         143.9379  141.4847  159.1573 C.3     1  UNL1        0.0954
      7 N         143.4622  140.0687  159.0200 N.pl3   1  UNL1       -0.2781
      8 C         142.8388  139.6609  160.3220 C.3     1  UNL1        0.0954
      9 C         142.9292  140.8248  161.2639 C.3     1  UNL1        0.0430
     10 C         142.5997  141.2921  162.6506 C.3     1  UNL1        0.0955
     11 C         143.5879  139.2112  157.7958 C.ar    1  UNL1        0.2195
     12 N         143.0460  137.8126  157.8009 N.ar    1  UNL1       -0.2180
     13 C         143.1717  136.9549  156.5767 C.ar    1  UNL1        0.0634
     14 C         142.6297  135.5563  156.5818 C.3     1  UNL1        0.0522
     15 C         143.8393  137.4961  155.3473 C.ar    1  UNL1        0.0296
     16 C         144.3812  138.8948  155.3421 C.ar    1  UNL1        0.0634
     17 C         145.0489  139.4359  154.1126 C.3     1  UNL1        0.0522
     18 N         144.2556  139.7523  156.5663 N.ar    1  UNL1       -0.2180
     19 C         142.4921  141.9597  167.6124 C.ar    1  UNL1        0.1390
     20 C         140.9963  141.9235  167.7186 C.ar    1  UNL1        0.0385
     21 C         140.1517  142.4346  166.5892 C.ar    1  UNL1        0.0242
     22 C         140.8028  142.9819  165.3537 C.ar    1  UNL1        0.1074
     23 C         142.2986  143.0182  165.2476 C.ar    1  UNL1        0.0759
     24 C         143.1432  142.5071  166.3769 C.ar    1  UNL1        0.0430
     25 N         139.9581  143.4930  164.2244 N.ar    1  UNL1       -0.1477
     26 N         139.6404  144.9315  163.9419 N.ar    1  UNL1       -0.1447
     27 C         138.7688  144.9828  162.7222 C.ar    1  UNL1        0.1446
     28 C         138.5478  143.5760  162.2510 C.ar    1  UNL1        0.1446
     29 N         139.2828  142.6553  163.1794 N.ar    1  UNL1       -0.1447
     30 C         143.6861  142.3534  169.8860 C.3     1  UNL1        0.2525
     31 O         143.3368  141.4487  168.7417 O.3     1  UNL1       -0.4714
@<TRIPOS>BOND
     1    30    31    1
     2    31    19    1
     3    19    20   ar
     4    20    21   ar
     5    21    22   ar
     6    22    25    1
     7    25    26   ar
     8    26    27   ar
     9    27    28   ar
    10    28    29   ar
    11    22    23   ar
    12    23     1    1
    13     1     2    2
    14     1     3   am
    15     3     4    1
    16     5     4    1
    17     5     6    1
    18     6     7    1
    19     7    11    1
    20    11    12   ar
    21    12    13   ar
    22    13    14    1
    23    13    15   ar
    24    15    16   ar
    25    16    17    1
    26    16    18   ar
    27     7     8    1
    28     9     8    1
    29     9    10    1
    30    23    24   ar
    31    24    19   ar
    32    29    25   ar
    33    10     3    1
    34     9     5    1
    35    18    11   ar
