@<TRIPOS>MOLECULE
*****
 38 41 0 0 0
SMALL
GASTEIGER

@<TRIPOS>ATOM
      1 N         142.5156  139.4531  164.3578 N.3     1  UNL1       -0.2653
      2 C         143.3693  140.6857  164.4011 C.3     1  UNL1        0.1036
      3 C         143.1538  141.7828  163.4012 C.3     1  UNL1        0.1470
      4 C         142.9383  142.8800  162.4012 C.3     1  UNL1        0.1035
      5 N         141.8690  142.7445  161.3580 N.3     1  UNL1       -0.2673
      6 C         141.0153  141.5119  161.3147 C.3     1  UNL1        0.1035
      7 C         141.2308  140.4148  162.3146 C.3     1  UNL1        0.1470
      8 C         141.4464  139.3177  163.3145 C.3     1  UNL1        0.1036
      9 O         142.0845  141.6473  162.3579 O.3     1  UNL1       -0.3530
     10 C         142.7311  138.3560  165.3577 C.3     1  UNL1        0.1202
     11 C         143.6551  138.5710  166.5196 C.3     1  UNL1        0.2226
     12 O         143.1031  138.6503  167.9121 O.3     1  UNL1       -0.4740
     13 C         141.1509  142.4428  169.3461 C.ar    1  UNL1        0.0686
     14 C         140.6110  141.1116  169.7779 C.ar    1  UNL1        0.0134
     15 C         141.2617  139.8475  169.3000 C.ar    1  UNL1        0.0376
     16 C         142.4524  139.9144  168.3901 C.ar    1  UNL1        0.1387
     17 C         142.9923  141.2455  167.9583 C.ar    1  UNL1        0.0376
     18 C         142.3416  142.5098  168.4362 C.ar    1  UNL1        0.0134
     19 N         139.8495  144.9710  170.3020 N.1     1  UNL1       -0.1908
     20 C         140.5002  143.7069  169.8240 C.1     1  UNL1        0.1004
     21 C         141.6535  143.8416  160.3581 C.3     1  UNL1        0.0913
     22 C         140.7066  144.9631  160.6675 C.3     1  UNL1        0.1084
     23 N         140.7833  145.6659  161.9904 N.3     1  UNL1       -0.1816
     24 H         140.5788  146.6495  161.8136 H       1  UNL1        0.1485
     25 S         139.8962  145.2357  163.1208 S.O2    1  UNL1        0.0451
     26 O         141.0882  145.1622  164.0283 O.2     1  UNL1       -0.1572
     27 O         138.7041  145.3091  162.2133 O.2     1  UNL1       -0.1572
     28 C         139.0089  144.8053  164.2512 C.3     1  UNL1        0.1952
     29 C         138.8909  143.3513  164.6003 C.ar    1  UNL1        0.0029
     30 C         139.8031  142.7503  165.6283 C.ar    1  UNL1       -0.0026
     31 C         139.6851  141.2963  165.9773 C.ar    1  UNL1        0.0036
     32 C         138.6548  140.4432  165.2984 C.ar    1  UNL1        0.0714
     33 C         137.7426  141.0442  164.2705 C.ar    1  UNL1        0.0036
     34 C         137.8607  142.4983  163.9214 C.ar    1  UNL1       -0.0026
     35 C         138.5368  138.9892  165.6475 C.3     1  UNL1        0.4186
     36 F         138.4187  137.5352  165.9965 F       1  UNL1       -0.1659
     37 F         138.7987  139.3138  167.0883 F       1  UNL1       -0.1659
     38 F         138.2749  138.6646  164.2066 F       1  UNL1       -0.1659
@<TRIPOS>BOND
     1    19    20    3
     2    20    13    1
     3    13    14   ar
     4    14    15   ar
     5    15    16   ar
     6    16    12    1
     7    12    11    1
     8    11    10    1
     9    10     1    1
    10     1     2    1
    11     2     3    1
    12     3     4    1
    13     4     5    1
    14     5    21    1
    15    21    22    1
    16    22    23    1
    17    23    25    1
    18    25    26    2
    19    25    27    2
    20    25    28    1
    21    28    29    1
    22    29    30   ar
    23    30    31   ar
    24    31    32   ar
    25    32    35    1
    26    35    36    1
    27    35    37    1
    28    35    38    1
    29    32    33   ar
    30    33    34   ar
    31     5     6    1
    32     6     7    1
    33     7     8    1
    34     7     9    1
    35    16    17   ar
    36    17    18   ar
    37    18    13   ar
    38     8     1    1
    39     9     3    1
    40    34    29   ar
    41    23    24    1
@<TRIPOS>MOLECULE
*****
 38 41 0 0 0
SMALL
GASTEIGER

@<TRIPOS>ATOM
      1 N         143.1174  140.3939  160.5412 N.3     1  UNL1       -0.2653
      2 C         143.7947  141.5073  161.2838 C.3     1  UNL1        0.1036
      3 C         143.1119  142.8346  161.4314 C.3     1  UNL1        0.1470
      4 C         142.4290  144.1620  161.5791 C.3     1  UNL1        0.1035
      5 N         141.0688  144.3760  160.9840 N.3     1  UNL1       -0.2673
      6 C         140.3915  143.2625  160.2413 C.3     1  UNL1        0.1035
      7 C         141.0744  141.9352  160.0937 C.3     1  UNL1        0.1470
      8 C         141.7573  140.6079  159.9461 C.3     1  UNL1        0.1036
      9 O         141.7517  143.0486  160.8364 O.3     1  UNL1       -0.3530
     10 C         143.8003  139.0665  160.3935 C.3     1  UNL1        0.1202
     11 C         143.3469  137.8946  161.2127 C.3     1  UNL1        0.2226
     12 O         141.9226  137.4305  161.1337 O.3     1  UNL1       -0.4740
     13 C         139.1848  137.9594  164.6657 C.ar    1  UNL1        0.0686
     14 C         138.7731  138.4658  163.3150 C.ar    1  UNL1        0.0134
     15 C         139.6857  138.2895  162.1378 C.ar    1  UNL1        0.0376
     16 C         141.0100  137.6068  162.3110 C.ar    1  UNL1        0.1387
     17 C         141.4218  137.1004  163.6615 C.ar    1  UNL1        0.0376
     18 C         140.5092  137.2767  164.8389 C.ar    1  UNL1        0.0134
     19 N         137.3596  138.3120  167.0202 N.1     1  UNL1       -0.1908
     20 C         138.2722  138.1357  165.8429 C.1     1  UNL1        0.1004
     21 C         140.3859  145.7033  161.1316 C.3     1  UNL1        0.0913
     22 C         139.3616  145.9041  162.2089 C.3     1  UNL1        0.1084
     23 N         138.2101  144.9514  162.3358 N.3     1  UNL1       -0.1816
     24 H         138.1634  144.4277  161.4618 H       1  UNL1        0.1485
     25 S         138.1898  143.9431  163.4462 S.O2    1  UNL1        0.0451
     26 O         137.4204  142.9969  162.5730 O.2     1  UNL1       -0.1572
     27 O         138.9593  144.8893  164.3194 O.2     1  UNL1       -0.1572
     28 C         138.1696  142.9348  164.5567 C.3     1  UNL1        0.1952
     29 C         139.3918  142.1155  164.8481 C.ar    1  UNL1        0.0029
     30 C         140.3199  141.7306  163.7342 C.ar    1  UNL1       -0.0026
     31 C         141.5421  140.9113  164.0255 C.ar    1  UNL1        0.0036
     32 C         141.8362  140.4768  165.4308 C.ar    1  UNL1        0.0714
     33 C         140.9082  140.8617  166.5446 C.ar    1  UNL1        0.0036
     34 C         139.6860  141.6810  166.2533 C.ar    1  UNL1       -0.0026
     35 C         143.0584  139.6575  165.7222 C.3     1  UNL1        0.4186
     36 F         144.2806  138.8381  166.0136 F       1  UNL1       -0.1659
     37 F         142.3885  139.0908  166.9388 F       1  UNL1       -0.1659
     38 F         143.7284  140.2242  164.5056 F       1  UNL1       -0.1659
@<TRIPOS>BOND
     1    19    20    3
     2    20    13    1
     3    13    14   ar
     4    14    15   ar
     5    15    16   ar
     6    16    12    1
     7    12    11    1
     8    11    10    1
     9    10     1    1
    10     1     2    1
    11     2     3    1
    12     3     4    1
    13     4     5    1
    14     5    21    1
    15    21    22    1
    16    22    23    1
    17    23    25    1
    18    25    26    2
    19    25    27    2
    20    25    28    1
    21    28    29    1
    22    29    30   ar
    23    30    31   ar
    24    31    32   ar
    25    32    35    1
    26    35    36    1
    27    35    37    1
    28    35    38    1
    29    32    33   ar
    30    33    34   ar
    31     5     6    1
    32     6     7    1
    33     7     8    1
    34     7     9    1
    35    16    17   ar
    36    17    18   ar
    37    18    13   ar
    38     8     1    1
    39     9     3    1
    40    34    29   ar
    41    23    24    1
@<TRIPOS>MOLECULE
*****
 38 41 0 0 0
SMALL
GASTEIGER

@<TRIPOS>ATOM
      1 N         139.0808  141.1035  165.8278 N.3     1  UNL1       -0.2653
      2 C         140.0421  142.2058  166.1607 C.3     1  UNL1        0.1036
      3 C         140.1609  143.3959  165.2555 C.3     1  UNL1        0.1470
      4 C         140.2798  144.5862  164.3503 C.3     1  UNL1        0.1035
      5 N         139.4374  144.6740  163.1124 N.3     1  UNL1       -0.2673
      6 C         138.4761  143.5716  162.7796 C.3     1  UNL1        0.1035
      7 C         138.3572  142.3815  163.6847 C.3     1  UNL1        0.1470
      8 C         138.2384  141.1913  164.5899 C.3     1  UNL1        0.1036
      9 O         139.3185  143.4838  164.0175 O.3     1  UNL1       -0.3530
     10 C         138.9619  139.9132  166.7330 C.3     1  UNL1        0.1202
     11 C         137.9558  138.8415  166.4345 C.3     1  UNL1        0.2226
     12 O         138.3838  137.5842  165.7373 O.3     1  UNL1       -0.4740
     13 C         141.0144  137.8158  162.0936 C.ar    1  UNL1        0.0686
     14 C         141.5636  137.2794  163.3824 C.ar    1  UNL1        0.0134
     15 C         140.6867  137.2022  164.5969 C.ar    1  UNL1        0.0376
     16 C         139.2607  137.6614  164.5228 C.ar    1  UNL1        0.1387
     17 C         138.7115  138.1978  163.2341 C.ar    1  UNL1        0.0376
     18 C         139.5884  138.2750  162.0195 C.ar    1  UNL1        0.0134
     19 N         142.7682  137.9703  159.6646 N.1     1  UNL1       -0.1908
     20 C         141.8913  137.8931  160.8791 C.1     1  UNL1        0.1004
     21 C         139.5562  145.8642  162.2072 C.3     1  UNL1        0.0913
     22 C         140.1447  145.7080  160.8362 C.3     1  UNL1        0.1084
     23 N         141.5845  145.3186  160.6780 N.3     1  UNL1       -0.1816
     24 H         142.0712  145.6447  161.5130 H       1  UNL1        0.1485
     25 S         141.9558  143.8768  160.4957 S.O2    1  UNL1        0.0451
     26 O         140.6246  143.6149  159.8560 O.2     1  UNL1       -0.1572
     27 O         143.2870  144.1388  161.1354 O.2     1  UNL1       -0.1572
     28 C         142.3272  142.4349  160.3134 C.3     1  UNL1        0.1952
     29 C         142.7817  141.6230  161.4900 C.ar    1  UNL1        0.0029
     30 C         141.9201  141.5294  162.7144 C.ar    1  UNL1       -0.0026
     31 C         142.3745  140.7175  163.8909 C.ar    1  UNL1        0.0036
     32 C         143.6906  139.9992  163.8431 C.ar    1  UNL1        0.0714
     33 C         144.5521  140.0929  162.6188 C.ar    1  UNL1        0.0036
     34 C         144.0976  140.9048  161.4422 C.ar    1  UNL1       -0.0026
     35 C         144.1450  139.1873  165.0197 C.3     1  UNL1        0.4186
     36 F         144.5995  138.3754  166.1962 F       1  UNL1       -0.1659
     37 F         145.4795  138.9857  164.3651 F       1  UNL1       -0.1659
     38 F         142.8105  139.3889  165.6743 F       1  UNL1       -0.1659
@<TRIPOS>BOND
     1    19    20    3
     2    20    13    1
     3    13    14   ar
     4    14    15   ar
     5    15    16   ar
     6    16    12    1
     7    12    11    1
     8    11    10    1
     9    10     1    1
    10     1     2    1
    11     2     3    1
    12     3     4    1
    13     4     5    1
    14     5    21    1
    15    21    22    1
    16    22    23    1
    17    23    25    1
    18    25    26    2
    19    25    27    2
    20    25    28    1
    21    28    29    1
    22    29    30   ar
    23    30    31   ar
    24    31    32   ar
    25    32    35    1
    26    35    36    1
    27    35    37    1
    28    35    38    1
    29    32    33   ar
    30    33    34   ar
    31     5     6    1
    32     6     7    1
    33     7     8    1
    34     7     9    1
    35    16    17   ar
    36    17    18   ar
    37    18    13   ar
    38     8     1    1
    39     9     3    1
    40    34    29   ar
    41    23    24    1
@<TRIPOS>MOLECULE
*****
 38 41 0 0 0
SMALL
GASTEIGER

@<TRIPOS>ATOM
      1 N         139.6957  138.5403  164.4689 N.3     1  UNL1       -0.2653
      2 C         139.2769  139.2305  163.2047 C.3     1  UNL1        0.1036
      3 C         140.3136  139.6983  162.2269 C.3     1  UNL1        0.1470
      4 C         141.3504  140.1662  161.2489 C.3     1  UNL1        0.1035
      5 N         142.8059  139.9439  161.5353 N.3     1  UNL1       -0.2673
      6 C         143.2247  139.2538  162.7996 C.3     1  UNL1        0.1035
      7 C         142.1880  138.7859  163.7774 C.3     1  UNL1        0.1470
      8 C         141.1513  138.3181  164.7553 C.3     1  UNL1        0.1036
      9 O         141.7692  139.4760  162.5132 O.3     1  UNL1       -0.3530
     10 C         138.6590  138.0724  165.4469 C.3     1  UNL1        0.1202
     11 C         138.0320  139.0473  166.3990 C.3     1  UNL1        0.2226
     12 O         138.3444  138.9712  167.8642 O.3     1  UNL1       -0.4740
     13 C         141.2835  141.8481  169.6904 C.ar    1  UNL1        0.0686
     14 C         140.0034  141.5293  170.4045 C.ar    1  UNL1        0.0134
     15 C         139.0237  140.5704  169.7958 C.ar    1  UNL1        0.0376
     16 C         139.3241  139.9302  168.4730 C.ar    1  UNL1        0.1387
     17 C         140.6040  140.2489  167.7588 C.ar    1  UNL1        0.0376
     18 C         141.5838  141.2079  168.3676 C.ar    1  UNL1        0.0134
     19 N         143.2428  143.7660  170.9079 N.1     1  UNL1       -0.1908
     20 C         142.2631  142.8071  170.2992 C.1     1  UNL1        0.1004
     21 C         143.8427  140.4118  160.5574 C.3     1  UNL1        0.0913
     22 C         144.4611  141.7696  160.7122 C.3     1  UNL1        0.1084
     23 N         145.3008  142.0785  161.9161 N.3     1  UNL1       -0.1816
     24 H         146.1640  142.4998  161.5729 H       1  UNL1        0.1485
     25 S         144.7717  142.9862  162.9867 S.O2    1  UNL1        0.0451
     26 O         145.2676  142.0368  164.0367 O.2     1  UNL1       -0.1572
     27 O         144.2758  143.9356  161.9366 O.2     1  UNL1       -0.1572
     28 C         144.2426  143.8940  164.0572 C.3     1  UNL1        0.1952
     29 C         142.7640  144.0039  164.2841 C.ar    1  UNL1        0.0029
     30 C         142.0635  143.0078  165.1599 C.ar    1  UNL1       -0.0026
     31 C         140.5848  143.1177  165.3867 C.ar    1  UNL1        0.0036
     32 C         139.8066  144.2238  164.7377 C.ar    1  UNL1        0.0714
     33 C         140.5071  145.2198  163.8619 C.ar    1  UNL1        0.0036
     34 C         141.9858  145.1099  163.6351 C.ar    1  UNL1       -0.0026
     35 C         138.3280  144.3337  164.9645 C.3     1  UNL1        0.4186
     36 F         136.8493  144.4436  165.1914 F       1  UNL1       -0.1659
     37 F         138.0926  143.2485  163.9561 F       1  UNL1       -0.1659
     38 F         138.5633  145.4189  165.9730 F       1  UNL1       -0.1659
@<TRIPOS>BOND
     1    19    20    3
     2    20    13    1
     3    13    14   ar
     4    14    15   ar
     5    15    16   ar
     6    16    12    1
     7    12    11    1
     8    11    10    1
     9    10     1    1
    10     1     2    1
    11     2     3    1
    12     3     4    1
    13     4     5    1
    14     5    21    1
    15    21    22    1
    16    22    23    1
    17    23    25    1
    18    25    26    2
    19    25    27    2
    20    25    28    1
    21    28    29    1
    22    29    30   ar
    23    30    31   ar
    24    31    32   ar
    25    32    35    1
    26    35    36    1
    27    35    37    1
    28    35    38    1
    29    32    33   ar
    30    33    34   ar
    31     5     6    1
    32     6     7    1
    33     7     8    1
    34     7     9    1
    35    16    17   ar
    36    17    18   ar
    37    18    13   ar
    38     8     1    1
    39     9     3    1
    40    34    29   ar
    41    23    24    1
@<TRIPOS>MOLECULE
*****
 38 41 0 0 0
SMALL
GASTEIGER

@<TRIPOS>ATOM
      1 N         140.6399  144.1026  160.1474 N.3     1  UNL1       -0.2653
      2 C         142.1114  143.8927  159.9461 C.3     1  UNL1        0.1036
      3 C         142.6488  142.5092  159.7290 C.3     1  UNL1        0.1470
      4 C         143.1863  141.1257  159.5119 C.3     1  UNL1        0.1035
      5 N         142.2521  139.9522  159.4960 N.3     1  UNL1       -0.2673
      6 C         140.7806  140.1622  159.6974 C.3     1  UNL1        0.1035
      7 C         140.2432  141.5456  159.9145 C.3     1  UNL1        0.1470
      8 C         139.7058  142.9291  160.1316 C.3     1  UNL1        0.1036
      9 O         141.7147  141.3357  159.7132 O.3     1  UNL1       -0.3530
     10 C         140.1025  145.4862  160.3646 C.3     1  UNL1        0.1202
     11 C         139.7233  145.9354  161.7445 C.3     1  UNL1        0.2226
     12 O         138.5767  145.2818  162.4575 O.3     1  UNL1       -0.4740
     13 C         139.3656  142.1301  165.5710 C.ar    1  UNL1        0.0686
     14 C         138.5371  141.8017  164.3644 C.ar    1  UNL1        0.0134
     15 C         138.2741  142.8522  163.3266 C.ar    1  UNL1        0.0376
     16 C         138.8396  144.2313  163.4953 C.ar    1  UNL1        0.1387
     17 C         139.6681  144.5597  164.7018 C.ar    1  UNL1        0.0376
     18 C         139.9311  143.5092  165.7397 C.ar    1  UNL1        0.0134
     19 N         139.8915  140.0290  167.6466 N.1     1  UNL1       -0.1908
     20 C         139.6285  141.0796  166.6088 C.1     1  UNL1        0.1004
     21 C         142.7895  138.5687  159.2789 C.3     1  UNL1        0.0913
     22 C         143.1741  137.7203  160.4547 C.3     1  UNL1        0.1084
     23 N         142.1257  137.2657  161.4264 N.3     1  UNL1       -0.1816
     24 H         142.3365  136.2939  161.6537 H       1  UNL1        0.1485
     25 S         141.9481  137.9865  162.7298 S.O2    1  UNL1        0.0451
     26 O         143.4300  138.2039  162.8115 O.2     1  UNL1       -0.1572
     27 O         140.4662  137.7691  162.6481 O.2     1  UNL1       -0.1572
     28 C         141.7705  138.7073  164.0332 C.3     1  UNL1        0.1952
     29 C         142.2791  140.1097  164.1901 C.ar    1  UNL1        0.0029
     30 C         141.9750  141.1394  163.1425 C.ar    1  UNL1       -0.0026
     31 C         142.4837  142.5418  163.2993 C.ar    1  UNL1        0.0036
     32 C         143.2963  142.9145  164.5038 C.ar    1  UNL1        0.0714
     33 C         143.6003  141.8849  165.5514 C.ar    1  UNL1        0.0036
     34 C         143.0917  140.4825  165.3945 C.ar    1  UNL1       -0.0026
     35 C         143.8049  144.3169  164.6607 C.3     1  UNL1        0.4186
     36 F         144.3136  145.7193  164.8175 F       1  UNL1       -0.1659
     37 F         144.8356  143.8338  165.6376 F       1  UNL1       -0.1659
     38 F         142.7743  144.8000  163.6837 F       1  UNL1       -0.1659
@<TRIPOS>BOND
     1    19    20    3
     2    20    13    1
     3    13    14   ar
     4    14    15   ar
     5    15    16   ar
     6    16    12    1
     7    12    11    1
     8    11    10    1
     9    10     1    1
    10     1     2    1
    11     2     3    1
    12     3     4    1
    13     4     5    1
    14     5    21    1
    15    21    22    1
    16    22    23    1
    17    23    25    1
    18    25    26    2
    19    25    27    2
    20    25    28    1
    21    28    29    1
    22    29    30   ar
    23    30    31   ar
    24    31    32   ar
    25    32    35    1
    26    35    36    1
    27    35    37    1
    28    35    38    1
    29    32    33   ar
    30    33    34   ar
    31     5     6    1
    32     6     7    1
    33     7     8    1
    34     7     9    1
    35    16    17   ar
    36    17    18   ar
    37    18    13   ar
    38     8     1    1
    39     9     3    1
    40    34    29   ar
    41    23    24    1
@<TRIPOS>MOLECULE
*****
 38 41 0 0 0
SMALL
GASTEIGER

@<TRIPOS>ATOM
      1 N         139.2221  137.9075  164.5064 N.3     1  UNL1       -0.2653
      2 C         138.6317  138.6576  163.3493 C.3     1  UNL1        0.1036
      3 C         139.4480  138.8928  162.1131 C.3     1  UNL1        0.1470
      4 C         140.2643  139.1281  160.8768 C.3     1  UNL1        0.1035
      5 N         141.6710  138.6133  160.7976 N.3     1  UNL1       -0.2673
      6 C         142.2613  137.8632  161.9547 C.3     1  UNL1        0.1035
      7 C         141.4451  137.6280  163.1909 C.3     1  UNL1        0.1470
      8 C         140.6288  137.3927  164.4272 C.3     1  UNL1        0.1036
      9 O         140.8547  138.3780  162.0339 O.3     1  UNL1       -0.3530
     10 C         138.4058  137.6722  165.7427 C.3     1  UNL1        0.1202
     11 C         138.0771  138.8177  166.6536 C.3     1  UNL1        0.2226
     12 O         139.0563  139.2427  167.7075 O.3     1  UNL1       -0.4740
     13 C         142.4881  141.9470  166.6310 C.ar    1  UNL1        0.0686
     14 C         141.1852  142.5340  167.0869 C.ar    1  UNL1        0.0134
     15 C         140.0412  141.6325  167.4458 C.ar    1  UNL1        0.0376
     16 C         140.2002  140.1441  167.3487 C.ar    1  UNL1        0.1387
     17 C         141.5031  139.5572  166.8928 C.ar    1  UNL1        0.0376
     18 C         142.6471  140.4586  166.5339 C.ar    1  UNL1        0.0134
     19 N         144.7760  143.7499  165.9133 N.1     1  UNL1       -0.1908
     20 C         143.6321  142.8485  166.2722 C.1     1  UNL1        0.1004
     21 C         142.4872  138.8485  159.5614 C.3     1  UNL1        0.0913
     22 C         143.7907  139.5855  159.6522 C.3     1  UNL1        0.1084
     23 N         143.8072  141.0852  159.6329 N.3     1  UNL1       -0.1816
     24 H         142.9950  141.3817  159.0918 H       1  UNL1        0.1485
     25 S         143.7726  141.8522  160.9215 S.O2    1  UNL1        0.0451
     26 O         144.4107  140.6933  161.6284 O.2     1  UNL1       -0.1572
     27 O         143.1345  143.0111  160.2146 O.2     1  UNL1       -0.1572
     28 C         143.7379  142.6193  162.2101 C.3     1  UNL1        0.1952
     29 C         142.4219  142.9853  162.8299 C.ar    1  UNL1        0.0029
     30 C         141.3623  141.9394  163.0129 C.ar    1  UNL1       -0.0026
     31 C         140.0462  142.3055  163.6326 C.ar    1  UNL1        0.0036
     32 C         139.7898  143.7175  164.0693 C.ar    1  UNL1        0.0714
     33 C         140.8494  144.7633  163.8863 C.ar    1  UNL1        0.0036
     34 C         142.1654  144.3972  163.2666 C.ar    1  UNL1       -0.0026
     35 C         138.4738  144.0836  164.6890 C.3     1  UNL1        0.4186
     36 F         137.1578  144.4497  165.3087 F       1  UNL1       -0.1659
     37 F         139.1034  145.2950  165.3103 F       1  UNL1       -0.1659
     38 F         137.8442  142.8721  164.0676 F       1  UNL1       -0.1659
@<TRIPOS>BOND
     1    19    20    3
     2    20    13    1
     3    13    14   ar
     4    14    15   ar
     5    15    16   ar
     6    16    12    1
     7    12    11    1
     8    11    10    1
     9    10     1    1
    10     1     2    1
    11     2     3    1
    12     3     4    1
    13     4     5    1
    14     5    21    1
    15    21    22    1
    16    22    23    1
    17    23    25    1
    18    25    26    2
    19    25    27    2
    20    25    28    1
    21    28    29    1
    22    29    30   ar
    23    30    31   ar
    24    31    32   ar
    25    32    35    1
    26    35    36    1
    27    35    37    1
    28    35    38    1
    29    32    33   ar
    30    33    34   ar
    31     5     6    1
    32     6     7    1
    33     7     8    1
    34     7     9    1
    35    16    17   ar
    36    17    18   ar
    37    18    13   ar
    38     8     1    1
    39     9     3    1
    40    34    29   ar
    41    23    24    1
@<TRIPOS>MOLECULE
*****
 38 41 0 0 0
SMALL
GASTEIGER

@<TRIPOS>ATOM
      1 N         138.9330  138.9553  162.8848 N.3     1  UNL1       -0.2653
      2 C         139.8943  138.8065  161.7430 C.3     1  UNL1        0.1036
      3 C         139.9899  139.8788  160.6986 C.3     1  UNL1        0.1470
      4 C         140.0856  140.9512  159.6541 C.3     1  UNL1        0.1035
      5 N         139.2200  142.1724  159.7514 N.3     1  UNL1       -0.2673
      6 C         138.2587  142.3211  160.8933 C.3     1  UNL1        0.1035
      7 C         138.1631  141.2488  161.9378 C.3     1  UNL1        0.1470
      8 C         138.0674  140.1765  162.9822 C.3     1  UNL1        0.1036
      9 O         139.1243  141.1000  160.7960 O.3     1  UNL1       -0.3530
     10 C         138.8374  137.8829  163.9293 C.3     1  UNL1        0.1202
     11 C         139.1004  138.2124  165.3688 C.3     1  UNL1        0.2226
     12 O         140.3854  138.8784  165.7631 O.3     1  UNL1       -0.4740
     13 C         140.3237  142.4298  168.5260 C.ar    1  UNL1        0.0686
     14 C         139.9548  141.0708  169.0430 C.ar    1  UNL1        0.0134
     15 C         139.9754  139.8871  168.1220 C.ar    1  UNL1        0.0376
     16 C         140.3648  140.0622  166.6841 C.ar    1  UNL1        0.1387
     17 C         140.7336  141.4211  166.1671 C.ar    1  UNL1        0.0376
     18 C         140.7131  142.6049  167.0881 C.ar    1  UNL1        0.0134
     19 N         140.2825  144.7973  170.3679 N.1     1  UNL1       -0.1908
     20 C         140.3031  143.6136  169.4470 C.1     1  UNL1        0.1004
     21 C         139.3156  143.2447  158.7070 C.3     1  UNL1        0.0913
     22 C         140.1997  144.4352  158.9332 C.3     1  UNL1        0.1084
     23 N         139.8293  145.4594  159.9645 N.3     1  UNL1       -0.1816
     24 H         138.8166  145.4115  160.0766 H       1  UNL1        0.1485
     25 S         140.4212  145.3859  161.3408 S.O2    1  UNL1        0.0451
     26 O         141.7861  145.2092  160.7443 O.2     1  UNL1       -0.1572
     27 O         139.0564  145.5626  161.9373 O.2     1  UNL1       -0.1572
     28 C         141.0132  145.3124  162.7172 C.3     1  UNL1        0.1952
     29 C         141.8974  144.1604  163.0927 C.ar    1  UNL1        0.0029
     30 C         143.0939  144.3878  163.9684 C.ar    1  UNL1       -0.0026
     31 C         143.9782  143.2358  164.3440 C.ar    1  UNL1        0.0036
     32 C         143.6659  141.8565  163.8439 C.ar    1  UNL1        0.0714
     33 C         142.4694  141.6292  162.9683 C.ar    1  UNL1        0.0036
     34 C         141.5852  142.7812  162.5927 C.ar    1  UNL1       -0.0026
     35 C         144.5501  140.7045  164.2194 C.3     1  UNL1        0.4186
     36 F         145.4344  139.5525  164.5950 F       1  UNL1       -0.1659
     37 F         145.2829  140.8426  162.9179 F       1  UNL1       -0.1659
     38 F         143.8173  140.5664  165.5210 F       1  UNL1       -0.1659
@<TRIPOS>BOND
     1    19    20    3
     2    20    13    1
     3    13    14   ar
     4    14    15   ar
     5    15    16   ar
     6    16    12    1
     7    12    11    1
     8    11    10    1
     9    10     1    1
    10     1     2    1
    11     2     3    1
    12     3     4    1
    13     4     5    1
    14     5    21    1
    15    21    22    1
    16    22    23    1
    17    23    25    1
    18    25    26    2
    19    25    27    2
    20    25    28    1
    21    28    29    1
    22    29    30   ar
    23    30    31   ar
    24    31    32   ar
    25    32    35    1
    26    35    36    1
    27    35    37    1
    28    35    38    1
    29    32    33   ar
    30    33    34   ar
    31     5     6    1
    32     6     7    1
    33     7     8    1
    34     7     9    1
    35    16    17   ar
    36    17    18   ar
    37    18    13   ar
    38     8     1    1
    39     9     3    1
    40    34    29   ar
    41    23    24    1
@<TRIPOS>MOLECULE
*****
 38 41 0 0 0
SMALL
GASTEIGER

@<TRIPOS>ATOM
      1 N         138.3268  140.4980  164.8037 N.3     1  UNL1       -0.2653
      2 C         139.0871  141.6174  165.4509 C.3     1  UNL1        0.1036
      3 C         139.4120  142.8546  164.6674 C.3     1  UNL1        0.1470
      4 C         139.7369  144.0918  163.8839 C.3     1  UNL1        0.1035
      5 N         139.3015  144.2095  162.4533 N.3     1  UNL1       -0.2673
      6 C         138.5412  143.0900  161.8062 C.3     1  UNL1        0.1035
      7 C         138.2163  141.8528  162.5897 C.3     1  UNL1        0.1470
      8 C         137.8915  140.6157  163.3731 C.3     1  UNL1        0.1036
      9 O         138.9766  142.9723  163.2368 O.3     1  UNL1       -0.3530
     10 C         138.0019  139.2607  165.5872 C.3     1  UNL1        0.1202
     11 C         138.9171  138.8064  166.6853 C.3     1  UNL1        0.2226
     12 O         138.7205  139.3133  168.0834 O.3     1  UNL1       -0.4740
     13 C         141.7149  142.1436  169.8926 C.ar    1  UNL1        0.0686
     14 C         142.0979  141.2998  168.7130 C.ar    1  UNL1        0.0134
     15 C         141.0998  140.3564  168.1099 C.ar    1  UNL1        0.0376
     16 C         139.7186  140.2567  168.6864 C.ar    1  UNL1        0.1387
     17 C         139.3355  141.1004  169.8660 C.ar    1  UNL1        0.0376
     18 C         140.3337  142.0439  170.4691 C.ar    1  UNL1        0.0134
     19 N         143.7111  144.0304  171.0987 N.1     1  UNL1       -0.1908
     20 C         142.7130  143.0870  170.4956 C.1     1  UNL1        0.1004
     21 C         139.6264  145.4467  161.6699 C.3     1  UNL1        0.0913
     22 C         140.6392  145.3902  160.5648 C.3     1  UNL1        0.1084
     23 N         142.0694  145.0607  160.8742 N.3     1  UNL1       -0.1816
     24 H         142.2303  145.3303  161.8447 H       1  UNL1        0.1485
     25 S         142.5628  143.6517  160.7287 S.O2    1  UNL1        0.0451
     26 O         141.4298  143.3517  159.7927 O.2     1  UNL1       -0.1572
     27 O         143.6958  143.9518  161.6647 O.2     1  UNL1       -0.1572
     28 C         143.0563  142.2426  160.5832 C.3     1  UNL1        0.1952
     29 C         143.1872  141.3652  161.7927 C.ar    1  UNL1        0.0029
     30 C         144.5237  140.7941  162.1639 C.ar    1  UNL1       -0.0026
     31 C         144.6546  139.9166  163.3734 C.ar    1  UNL1        0.0036
     32 C         143.4489  139.6102  164.2117 C.ar    1  UNL1        0.0714
     33 C         142.1125  140.1813  163.8405 C.ar    1  UNL1        0.0036
     34 C         141.9816  141.0587  162.6310 C.ar    1  UNL1       -0.0026
     35 C         143.5798  138.7328  165.4212 C.3     1  UNL1        0.4186
     36 F         143.7107  137.8553  166.6307 F       1  UNL1       -0.1659
     37 F         142.0856  138.6456  165.5197 F       1  UNL1       -0.1659
     38 F         145.0741  138.8199  165.3227 F       1  UNL1       -0.1659
@<TRIPOS>BOND
     1    19    20    3
     2    20    13    1
     3    13    14   ar
     4    14    15   ar
     5    15    16   ar
     6    16    12    1
     7    12    11    1
     8    11    10    1
     9    10     1    1
    10     1     2    1
    11     2     3    1
    12     3     4    1
    13     4     5    1
    14     5    21    1
    15    21    22    1
    16    22    23    1
    17    23    25    1
    18    25    26    2
    19    25    27    2
    20    25    28    1
    21    28    29    1
    22    29    30   ar
    23    30    31   ar
    24    31    32   ar
    25    32    35    1
    26    35    36    1
    27    35    37    1
    28    35    38    1
    29    32    33   ar
    30    33    34   ar
    31     5     6    1
    32     6     7    1
    33     7     8    1
    34     7     9    1
    35    16    17   ar
    36    17    18   ar
    37    18    13   ar
    38     8     1    1
    39     9     3    1
    40    34    29   ar
    41    23    24    1
@<TRIPOS>MOLECULE
*****
 38 41 0 0 0
SMALL
GASTEIGER

@<TRIPOS>ATOM
      1 N         139.1360  137.8686  164.3627 N.3     1  UNL1       -0.2653
      2 C         140.5555  137.4158  164.1897 C.3     1  UNL1        0.1036
      3 C         141.2639  137.6496  162.8885 C.3     1  UNL1        0.1470
      4 C         141.9724  137.8834  161.5871 C.3     1  UNL1        0.1035
      5 N         141.2614  138.5699  160.4588 N.3     1  UNL1       -0.2673
      6 C         139.8418  139.0226  160.6318 C.3     1  UNL1        0.1035
      7 C         139.1333  138.7888  161.9331 C.3     1  UNL1        0.1470
      8 C         138.4249  138.5551  163.2344 C.3     1  UNL1        0.1036
      9 O         140.5528  138.3361  161.7601 O.3     1  UNL1       -0.3530
     10 C         138.4274  137.6348  165.6641 C.3     1  UNL1        0.1202
     11 C         138.1819  138.7803  166.6007 C.3     1  UNL1        0.2226
     12 O         139.2071  139.1350  167.6368 O.3     1  UNL1       -0.4740
     13 C         142.5611  141.9541  166.6107 C.ar    1  UNL1        0.0686
     14 C         142.7206  140.4813  166.3750 C.ar    1  UNL1        0.0134
     15 C         141.6026  139.5417  166.7170 C.ar    1  UNL1        0.0376
     16 C         140.3251  140.0747  167.2947 C.ar    1  UNL1        0.1387
     17 C         140.1655  141.5474  167.5304 C.ar    1  UNL1        0.0376
     18 C         141.2836  142.4872  167.1884 C.ar    1  UNL1        0.0134
     19 N         144.7971  143.8335  165.9266 N.1     1  UNL1       -0.1908
     20 C         143.6791  142.8938  166.2686 C.1     1  UNL1        0.1004
     21 C         141.9698  138.8037  159.1575 C.3     1  UNL1        0.0913
     22 C         142.7005  140.0925  158.9223 C.3     1  UNL1        0.1084
     23 N         143.9811  140.3724  159.6515 N.3     1  UNL1       -0.1816
     24 H         144.6107  140.8145  158.9818 H       1  UNL1        0.1485
     25 S         143.9730  141.2393  160.8756 S.O2    1  UNL1        0.0451
     26 O         143.4061  142.3708  160.0705 O.2     1  UNL1       -0.1572
     27 O         144.5399  140.1077  161.6807 O.2     1  UNL1       -0.1572
     28 C         143.9649  142.1061  162.0998 C.3     1  UNL1        0.1952
     29 C         142.6619  142.5363  162.7055 C.ar    1  UNL1        0.0029
     30 C         142.4409  143.9758  163.0651 C.ar    1  UNL1       -0.0026
     31 C         141.1378  144.4060  163.6709 C.ar    1  UNL1        0.0036
     32 C         140.0557  143.3967  163.9171 C.ar    1  UNL1        0.0714
     33 C         140.2767  141.9574  163.5575 C.ar    1  UNL1        0.0036
     34 C         141.5798  141.5272  162.9517 C.ar    1  UNL1       -0.0026
     35 C         138.7527  143.8269  164.5228 C.3     1  UNL1        0.4186
     36 F         137.4496  144.2571  165.1286 F       1  UNL1       -0.1659
     37 F         139.0666  145.2541  164.1845 F       1  UNL1       -0.1659
     38 F         138.4388  142.3997  164.8612 F       1  UNL1       -0.1659
@<TRIPOS>BOND
     1    19    20    3
     2    20    13    1
     3    13    14   ar
     4    14    15   ar
     5    15    16   ar
     6    16    12    1
     7    12    11    1
     8    11    10    1
     9    10     1    1
    10     1     2    1
    11     2     3    1
    12     3     4    1
    13     4     5    1
    14     5    21    1
    15    21    22    1
    16    22    23    1
    17    23    25    1
    18    25    26    2
    19    25    27    2
    20    25    28    1
    21    28    29    1
    22    29    30   ar
    23    30    31   ar
    24    31    32   ar
    25    32    35    1
    26    35    36    1
    27    35    37    1
    28    35    38    1
    29    32    33   ar
    30    33    34   ar
    31     5     6    1
    32     6     7    1
    33     7     8    1
    34     7     9    1
    35    16    17   ar
    36    17    18   ar
    37    18    13   ar
    38     8     1    1
    39     9     3    1
    40    34    29   ar
    41    23    24    1
