@<TRIPOS>MOLECULE
*****
 23 25 0 0 0
SMALL
GASTEIGER

@<TRIPOS>ATOM
      1 C         139.5830  141.0974  165.6200 C.ar    1  UNL1       -0.0158
      2 C         138.7456  140.0121  165.0109 C.ar    1  UNL1        0.0050
      3 S         137.9161  140.6234  163.9208 S.2     1  UNL1       -0.0915
      4 C         138.2409  142.0864  163.8561 C.ar    1  UNL1        0.0288
      5 C         137.7316  143.1896  162.9767 C.ar    1  UNL1        0.0065
      6 C         138.2526  144.5858  163.1474 C.ar    1  UNL1        0.0005
      7 C         139.2828  144.8788  164.1975 C.ar    1  UNL1        0.0000
      8 C         139.7921  143.7755  165.0770 C.ar    1  UNL1        0.0002
      9 C         139.2711  142.3793  164.9063 C.ar    1  UNL1        0.0025
     10 C         141.8009  140.1102  166.5455 C.3     1  UNL1        0.0095
     11 C         140.5608  140.9301  166.7452 C.3     1  UNL1        0.0471
     12 C         140.2985  141.5827  168.0700 C.ar    1  UNL1        0.0101
     13 C         140.8917  142.9263  168.3748 C.ar    1  UNL1       -0.0000
     14 C         140.6294  143.5790  169.6996 C.ar    1  UNL1        0.0204
     15 C         139.7739  142.8880  170.7198 C.ar    1  UNL1        0.0998
     16 N         139.1807  141.5444  170.4150 N.ar    1  UNL1       -0.2328
     17 C         139.4430  140.8918  169.0901 C.ar    1  UNL1        0.1346
     18 CL        138.8497  139.5482  168.7854 Cl      1  UNL1       -0.0617
     19 C         138.7389  138.5691  165.4201 C.3     1  UNL1        0.0499
     20 C         138.9269  137.4962  164.3889 C.3     1  UNL1        0.0774
     21 N         140.0488  137.5963  163.3984 N.3     1  UNL1       -0.2700
     22 C         141.4673  137.4132  163.8508 C.3     1  UNL1        0.0897
     23 C         139.7525  137.8794  161.9555 C.3     1  UNL1        0.0897
@<TRIPOS>BOND
     1    11    10    1
     2    11    12    1
     3    12    13   ar
     4    13    14   ar
     5    14    15   ar
     6    15    16   ar
     7    16    17   ar
     8    17    18    1
     9    11     1    1
    10     1     2   ar
    11     2    19    1
    12    19    20    1
    13    20    21    1
    14    21    22    1
    15    21    23    1
    16     2     3   ar
    17     3     4   ar
    18     4     5   ar
    19     5     6   ar
    20     6     7   ar
    21     7     8   ar
    22     8     9   ar
    23    17    12   ar
    24     9     1   ar
    25     9     4   ar
@<TRIPOS>MOLECULE
*****
 23 25 0 0 0
SMALL
GASTEIGER

@<TRIPOS>ATOM
      1 C         140.5065  140.8275  165.5294 C.ar    1  UNL1       -0.0158
      2 C         139.7154  139.7137  164.9101 C.ar    1  UNL1        0.0050
      3 S         138.4544  140.2986  164.3465 S.2     1  UNL1       -0.0915
      4 C         138.4661  141.7739  164.6174 C.ar    1  UNL1        0.0288
      5 C         137.4858  142.8618  164.2928 C.ar    1  UNL1        0.0065
      6 C         137.7739  144.2766  164.6993 C.ar    1  UNL1        0.0005
      7 C         139.0422  144.6035  165.4305 C.ar    1  UNL1        0.0000
      8 C         140.0225  143.5156  165.7550 C.ar    1  UNL1        0.0002
      9 C         139.7345  142.1008  165.3485 C.ar    1  UNL1        0.0025
     10 C         141.9035  140.2628  167.6460 C.3     1  UNL1        0.0095
     11 C         141.8363  140.6919  166.2101 C.3     1  UNL1        0.0471
     12 C         143.0987  140.9853  165.4552 C.ar    1  UNL1        0.0101
     13 C         143.5184  142.4060  165.2190 C.ar    1  UNL1       -0.0000
     14 C         144.7809  142.6994  164.4641 C.ar    1  UNL1        0.0204
     15 C         145.6238  141.5722  163.9453 C.ar    1  UNL1        0.0998
     16 N         145.2041  140.1517  164.1815 N.ar    1  UNL1       -0.2328
     17 C         143.9416  139.8582  164.9364 C.ar    1  UNL1        0.1346
     18 CL        143.5220  138.4376  165.1726 Cl      1  UNL1       -0.0617
     19 C         140.1151  138.2687  164.8628 C.3     1  UNL1        0.0499
     20 C         139.7238  137.4203  163.6894 C.3     1  UNL1        0.0774
     21 N         140.2573  137.7371  162.3237 N.3     1  UNL1       -0.2700
     22 C         139.3113  138.0588  161.2049 C.3     1  UNL1        0.0897
     23 C         141.7369  137.7322  162.0769 C.3     1  UNL1        0.0897
@<TRIPOS>BOND
     1    11    10    1
     2    11    12    1
     3    12    13   ar
     4    13    14   ar
     5    14    15   ar
     6    15    16   ar
     7    16    17   ar
     8    17    18    1
     9    11     1    1
    10     1     2   ar
    11     2    19    1
    12    19    20    1
    13    20    21    1
    14    21    22    1
    15    21    23    1
    16     2     3   ar
    17     3     4   ar
    18     4     5   ar
    19     5     6   ar
    20     6     7   ar
    21     7     8   ar
    22     8     9   ar
    23    17    12   ar
    24     9     1   ar
    25     9     4   ar
@<TRIPOS>MOLECULE
*****
 23 25 0 0 0
SMALL
GASTEIGER

@<TRIPOS>ATOM
      1 C         140.2039  139.5208  166.6547 C.ar    1  UNL1       -0.0158
      2 C         141.5112  139.1013  166.0505 C.ar    1  UNL1        0.0050
      3 S         142.6045  139.4715  167.0083 S.2     1  UNL1       -0.0915
      4 C         141.9731  140.1198  168.2045 C.ar    1  UNL1        0.0288
      5 C         142.5574  140.6864  169.4645 C.ar    1  UNL1        0.0065
      6 C         141.6580  141.2834  170.5059 C.ar    1  UNL1        0.0005
      7 C         140.1743  141.3138  170.2874 C.ar    1  UNL1        0.0000
      8 C         139.5900  140.7473  169.0275 C.ar    1  UNL1        0.0002
      9 C         140.4894  140.1503  167.9860 C.ar    1  UNL1        0.0025
     10 C         137.8666  138.3863  166.6457 C.3     1  UNL1        0.0095
     11 C         138.8491  139.3422  166.0363 C.3     1  UNL1        0.0471
     12 C         138.4766  140.1193  164.8087 C.ar    1  UNL1        0.0101
     13 C         138.2180  141.5938  164.9041 C.ar    1  UNL1       -0.0000
     14 C         137.8455  142.3710  163.6764 C.ar    1  UNL1        0.0204
     15 C         137.7316  141.6736  162.3532 C.ar    1  UNL1        0.0998
     16 N         137.9901  140.1992  162.2578 N.ar    1  UNL1       -0.2328
     17 C         138.3626  139.4220  163.4855 C.ar    1  UNL1        0.1346
     18 CL        138.6211  137.9475  163.3900 Cl      1  UNL1       -0.0617
     19 C         141.6931  138.4295  164.7217 C.3     1  UNL1        0.0499
     20 C         142.2306  139.2057  163.5562 C.3     1  UNL1        0.0774
     21 N         143.6333  138.9691  163.0803 N.3     1  UNL1       -0.2700
     22 C         143.8762  138.2047  161.8126 C.3     1  UNL1        0.0897
     23 C         144.7929  139.4967  163.8719 C.3     1  UNL1        0.0897
@<TRIPOS>BOND
     1    11    10    1
     2    11    12    1
     3    12    13   ar
     4    13    14   ar
     5    14    15   ar
     6    15    16   ar
     7    16    17   ar
     8    17    18    1
     9    11     1    1
    10     1     2   ar
    11     2    19    1
    12    19    20    1
    13    20    21    1
    14    21    22    1
    15    21    23    1
    16     2     3   ar
    17     3     4   ar
    18     4     5   ar
    19     5     6   ar
    20     6     7   ar
    21     7     8   ar
    22     8     9   ar
    23    17    12   ar
    24     9     1   ar
    25     9     4   ar
@<TRIPOS>MOLECULE
*****
 23 25 0 0 0
SMALL
GASTEIGER

@<TRIPOS>ATOM
      1 C         141.7783  142.5454  165.3415 C.ar    1  UNL1       -0.0158
      2 C         142.7735  143.4916  164.7380 C.ar    1  UNL1        0.0050
      3 S         142.0215  144.4830  163.9003 S.2     1  UNL1       -0.0915
      4 C         140.5616  144.1495  163.9861 C.ar    1  UNL1        0.0288
      5 C         139.3497  144.7814  163.3683 C.ar    1  UNL1        0.0065
      6 C         137.9874  144.2159  163.6412 C.ar    1  UNL1        0.0005
      7 C         137.8372  143.0185  164.5319 C.ar    1  UNL1        0.0000
      8 C         139.0491  142.3865  165.1498 C.ar    1  UNL1        0.0002
      9 C         140.4113  142.9520  164.8769 C.ar    1  UNL1        0.0025
     10 C         142.3979  140.0440  165.6723 C.3     1  UNL1        0.0095
     11 C         142.0946  141.3947  166.2502 C.3     1  UNL1        0.0471
     12 C         142.1077  141.5944  167.7367 C.ar    1  UNL1        0.0101
     13 C         143.2610  142.2977  168.3890 C.ar    1  UNL1       -0.0000
     14 C         143.2741  142.4975  169.8755 C.ar    1  UNL1        0.0204
     15 C         142.1338  141.9940  170.7100 C.ar    1  UNL1        0.0998
     16 N         140.9805  141.2908  170.0578 N.ar    1  UNL1       -0.2328
     17 C         140.9674  141.0910  168.5712 C.ar    1  UNL1        0.1346
     18 CL        139.8141  140.3878  167.9192 Cl      1  UNL1       -0.0617
     19 C         144.2598  143.4532  164.9371 C.3     1  UNL1        0.0499
     20 C         145.0796  142.3929  164.2637 C.3     1  UNL1        0.0774
     21 N         144.7464  141.9619  162.8662 N.3     1  UNL1       -0.2700
     22 C         144.4310  140.5235  162.5800 C.3     1  UNL1        0.0897
     23 C         144.7285  142.9691  161.7548 C.3     1  UNL1        0.0897
@<TRIPOS>BOND
     1    11    10    1
     2    11    12    1
     3    12    13   ar
     4    13    14   ar
     5    14    15   ar
     6    15    16   ar
     7    16    17   ar
     8    17    18    1
     9    11     1    1
    10     1     2   ar
    11     2    19    1
    12    19    20    1
    13    20    21    1
    14    21    22    1
    15    21    23    1
    16     2     3   ar
    17     3     4   ar
    18     4     5   ar
    19     5     6   ar
    20     6     7   ar
    21     7     8   ar
    22     8     9   ar
    23    17    12   ar
    24     9     1   ar
    25     9     4   ar
@<TRIPOS>MOLECULE
*****
 23 25 0 0 0
SMALL
GASTEIGER

@<TRIPOS>ATOM
      1 C         140.4286  141.1770  165.8857 C.ar    1  UNL1       -0.0158
      2 C         141.0567  140.2858  164.8556 C.ar    1  UNL1        0.0050
      3 S         141.0415  141.0120  163.5432 S.2     1  UNL1       -0.0915
      4 C         140.4041  142.3520  163.7622 C.ar    1  UNL1        0.0288
      5 C         140.1197  143.4925  162.8304 C.ar    1  UNL1        0.0065
      6 C         139.4564  144.7350  163.3464 C.ar    1  UNL1        0.0005
      7 C         139.0776  144.8370  164.7941 C.ar    1  UNL1        0.0000
      8 C         139.3620  143.6965  165.7260 C.ar    1  UNL1        0.0002
      9 C         140.0252  142.4540  165.2100 C.ar    1  UNL1        0.0025
     10 C         139.2051  139.8412  167.7483 C.3     1  UNL1        0.0095
     11 C         140.2373  140.8489  167.3369 C.3     1  UNL1        0.0471
     12 C         141.0781  141.5284  168.3766 C.ar    1  UNL1        0.0101
     13 C         140.6351  142.8365  168.9620 C.ar    1  UNL1       -0.0000
     14 C         141.4759  143.5161  170.0018 C.ar    1  UNL1        0.0204
     15 C         142.7598  142.8875  170.4563 C.ar    1  UNL1        0.0998
     16 N         143.2029  141.5795  169.8709 N.ar    1  UNL1       -0.2328
     17 C         142.3621  140.8999  168.8311 C.ar    1  UNL1        0.1346
     18 CL        142.8052  139.5918  168.2458 Cl      1  UNL1       -0.0617
     19 C         141.6038  138.9099  165.0957 C.3     1  UNL1        0.0499
     20 C         141.0251  137.7346  164.3652 C.3     1  UNL1        0.0774
     21 N         139.5453  137.6486  164.1359 N.3     1  UNL1       -0.2700
     22 C         138.6196  137.4130  165.2926 C.3     1  UNL1        0.0897
     23 C         138.9910  137.7981  162.7501 C.3     1  UNL1        0.0897
@<TRIPOS>BOND
     1    11    10    1
     2    11    12    1
     3    12    13   ar
     4    13    14   ar
     5    14    15   ar
     6    15    16   ar
     7    16    17   ar
     8    17    18    1
     9    11     1    1
    10     1     2   ar
    11     2    19    1
    12    19    20    1
    13    20    21    1
    14    21    22    1
    15    21    23    1
    16     2     3   ar
    17     3     4   ar
    18     4     5   ar
    19     5     6   ar
    20     6     7   ar
    21     7     8   ar
    22     8     9   ar
    23    17    12   ar
    24     9     1   ar
    25     9     4   ar
@<TRIPOS>MOLECULE
*****
 23 25 0 0 0
SMALL
GASTEIGER

@<TRIPOS>ATOM
      1 C         141.4003  141.3558  165.0901 C.ar    1  UNL1       -0.0158
      2 C         141.1172  142.8287  165.1126 C.ar    1  UNL1        0.0050
      3 S         142.3758  143.5484  164.7278 S.2     1  UNL1       -0.0915
      4 C         143.4366  142.5204  164.4676 C.ar    1  UNL1        0.0288
      5 C         144.8737  142.6431  164.0556 C.ar    1  UNL1        0.0065
      6 C         145.7078  141.4107  163.8675 C.ar    1  UNL1        0.0005
      7 C         145.1049  140.0556  164.0914 C.ar    1  UNL1        0.0000
      8 C         143.6679  139.9329  164.5034 C.ar    1  UNL1        0.0002
      9 C         142.8337  141.1652  164.6915 C.ar    1  UNL1        0.0025
     10 C         140.1834  139.8657  166.8363 C.3     1  UNL1        0.0095
     11 C         140.4217  140.2650  165.4101 C.3     1  UNL1        0.0471
     12 C         139.6813  139.5733  164.3041 C.ar    1  UNL1        0.0101
     13 C         138.6028  140.2987  163.5553 C.ar    1  UNL1       -0.0000
     14 C         137.8624  139.6071  162.4492 C.ar    1  UNL1        0.0204
     15 C         138.2005  138.1900  162.0919 C.ar    1  UNL1        0.0998
     16 N         139.2789  137.4647  162.8407 N.ar    1  UNL1       -0.2328
     17 C         140.0193  138.1563  163.9468 C.ar    1  UNL1        0.1346
     18 CL        141.0978  137.4308  164.6955 Cl      1  UNL1       -0.0617
     19 C         139.8059  143.4694  165.4590 C.3     1  UNL1        0.0499
     20 C         139.4007  144.7534  164.7980 C.3     1  UNL1        0.0774
     21 N         138.9739  144.7545  163.3600 N.3     1  UNL1       -0.2700
     22 C         137.7934  143.9362  162.9274 C.3     1  UNL1        0.0897
     23 C         139.7274  145.5739  162.3546 C.3     1  UNL1        0.0897
@<TRIPOS>BOND
     1    11    10    1
     2    11    12    1
     3    12    13   ar
     4    13    14   ar
     5    14    15   ar
     6    15    16   ar
     7    16    17   ar
     8    17    18    1
     9    11     1    1
    10     1     2   ar
    11     2    19    1
    12    19    20    1
    13    20    21    1
    14    21    22    1
    15    21    23    1
    16     2     3   ar
    17     3     4   ar
    18     4     5   ar
    19     5     6   ar
    20     6     7   ar
    21     7     8   ar
    22     8     9   ar
    23    17    12   ar
    24     9     1   ar
    25     9     4   ar
@<TRIPOS>MOLECULE
*****
 23 25 0 0 0
SMALL
GASTEIGER

@<TRIPOS>ATOM
      1 C         142.1435  140.3172  165.6452 C.ar    1  UNL1       -0.0158
      2 C         143.0825  139.4569  164.8528 C.ar    1  UNL1        0.0050
      3 S         142.3464  138.2120  164.4548 S.2     1  UNL1       -0.0915
      4 C         140.9525  138.3029  165.0013 C.ar    1  UNL1        0.0288
      5 C         139.7812  137.3691  164.9241 C.ar    1  UNL1        0.0065
      6 C         138.4845  137.7364  165.5826 C.ar    1  UNL1        0.0005
      7 C         138.3591  139.0376  166.3183 C.ar    1  UNL1        0.0000
      8 C         139.5304  139.9714  166.3955 C.ar    1  UNL1        0.0002
      9 C         140.8270  139.6041  165.7371 C.ar    1  UNL1        0.0025
     10 C         142.7308  141.7773  167.7125 C.3     1  UNL1        0.0095
     11 C         142.4645  141.6558  166.2412 C.3     1  UNL1        0.0471
     12 C         142.5193  142.8728  165.3662 C.ar    1  UNL1        0.0101
     13 C         143.8428  143.4006  164.8974 C.ar    1  UNL1       -0.0000
     14 C         143.8977  144.6176  164.0223 C.ar    1  UNL1        0.0204
     15 C         142.6288  145.3069  163.6160 C.ar    1  UNL1        0.0998
     16 N         141.3054  144.7792  164.0848 N.ar    1  UNL1       -0.2328
     17 C         141.2505  143.5622  164.9599 C.ar    1  UNL1        0.1346
     18 CL        139.9270  143.0345  165.4287 Cl      1  UNL1       -0.0617
     19 C         144.5074  139.7839  164.5172 C.3     1  UNL1        0.0499
     20 C         144.8317  140.5003  163.2399 C.3     1  UNL1        0.0774
     21 N         143.9012  140.4015  162.0675 N.3     1  UNL1       -0.2700
     22 C         144.0071  139.2420  161.1217 C.3     1  UNL1        0.0897
     23 C         142.8650  141.4620  161.8409 C.3     1  UNL1        0.0897
@<TRIPOS>BOND
     1    11    10    1
     2    11    12    1
     3    12    13   ar
     4    13    14   ar
     5    14    15   ar
     6    15    16   ar
     7    16    17   ar
     8    17    18    1
     9    11     1    1
    10     1     2   ar
    11     2    19    1
    12    19    20    1
    13    20    21    1
    14    21    22    1
    15    21    23    1
    16     2     3   ar
    17     3     4   ar
    18     4     5   ar
    19     5     6   ar
    20     6     7   ar
    21     7     8   ar
    22     8     9   ar
    23    17    12   ar
    24     9     1   ar
    25     9     4   ar
@<TRIPOS>MOLECULE
*****
 23 25 0 0 0
SMALL
GASTEIGER

@<TRIPOS>ATOM
      1 C         140.8136  141.4497  165.9672 C.ar    1  UNL1       -0.0158
      2 C         140.4600  140.1007  165.4147 C.ar    1  UNL1        0.0050
      3 S         139.2309  140.2540  164.5686 S.2     1  UNL1       -0.0915
      4 C         138.8250  141.6978  164.5981 C.ar    1  UNL1        0.0288
      5 C         137.6910  142.4350  163.9496 C.ar    1  UNL1        0.0065
      6 C         137.5352  143.9111  164.1654 C.ar    1  UNL1        0.0005
      7 C         138.5134  144.6501  165.0298 C.ar    1  UNL1        0.0000
      8 C         139.6474  143.9129  165.6783 C.ar    1  UNL1        0.0002
      9 C         139.8031  142.4367  165.4625 C.ar    1  UNL1        0.0025
     10 C         143.1693  142.4853  166.3260 C.3     1  UNL1        0.0095
     11 C         141.9740  141.7576  166.8664 C.3     1  UNL1        0.0471
     12 C         141.9393  141.3380  168.3060 C.ar    1  UNL1        0.0101
     13 C         142.6476  140.0891  168.7406 C.ar    1  UNL1       -0.0000
     14 C         142.6129  139.6694  170.1802 C.ar    1  UNL1        0.0204
     15 C         141.8698  140.4985  171.1854 C.ar    1  UNL1        0.0998
     16 N         141.1616  141.7473  170.7510 N.ar    1  UNL1       -0.2328
     17 C         141.1963  142.1671  169.3113 C.ar    1  UNL1        0.1346
     18 CL        140.4880  143.4159  168.8769 Cl      1  UNL1       -0.0617
     19 C         141.2046  138.8228  165.6645 C.3     1  UNL1        0.0499
     20 C         141.2554  137.7645  164.6028 C.3     1  UNL1        0.0774
     21 N         141.8528  138.0749  163.2624 N.3     1  UNL1       -0.2700
     22 C         141.0413  137.8792  162.0161 C.3     1  UNL1        0.0897
     23 C         143.2617  138.5810  163.1682 C.3     1  UNL1        0.0897
@<TRIPOS>BOND
     1    11    10    1
     2    11    12    1
     3    12    13   ar
     4    13    14   ar
     5    14    15   ar
     6    15    16   ar
     7    16    17   ar
     8    17    18    1
     9    11     1    1
    10     1     2   ar
    11     2    19    1
    12    19    20    1
    13    20    21    1
    14    21    22    1
    15    21    23    1
    16     2     3   ar
    17     3     4   ar
    18     4     5   ar
    19     5     6   ar
    20     6     7   ar
    21     7     8   ar
    22     8     9   ar
    23    17    12   ar
    24     9     1   ar
    25     9     4   ar
@<TRIPOS>MOLECULE
*****
 23 25 0 0 0
SMALL
GASTEIGER

@<TRIPOS>ATOM
      1 C         141.2415  141.6747  165.5863 C.ar    1  UNL1       -0.0158
      2 C         139.9201  141.8312  164.8939 C.ar    1  UNL1        0.0050
      3 S         140.0204  143.0033  163.9632 S.2     1  UNL1       -0.0915
      4 C         141.4038  143.5711  164.0804 C.ar    1  UNL1        0.0288
      5 C         142.0739  144.7298  163.4033 C.ar    1  UNL1        0.0065
      6 C         143.4985  145.0674  163.7293 C.ar    1  UNL1        0.0005
      7 C         144.2532  144.2462  164.7325 C.ar    1  UNL1        0.0000
      8 C         143.5832  143.0875  165.4095 C.ar    1  UNL1        0.0002
      9 C         142.1585  142.7500  165.0835 C.ar    1  UNL1        0.0025
     10 C         142.3945  139.4291  166.2013 C.3     1  UNL1        0.0095
     11 C         141.5855  140.6268  166.6029 C.3     1  UNL1        0.0471
     12 C         141.1206  140.7765  168.0211 C.ar    1  UNL1        0.0101
     13 C         139.7959  140.2107  168.4399 C.ar    1  UNL1       -0.0000
     14 C         139.3310  140.3603  169.8581 C.ar    1  UNL1        0.0204
     15 C         140.1907  141.0758  170.8577 C.ar    1  UNL1        0.0998
     16 N         141.5153  141.6415  170.4389 N.ar    1  UNL1       -0.2328
     17 C         141.9802  141.4919  169.0207 C.ar    1  UNL1        0.1346
     18 CL        143.3048  142.0577  168.6021 Cl      1  UNL1       -0.0617
     19 C         138.7107  140.9673  165.0966 C.3     1  UNL1        0.0499
     20 C         138.0109  140.3671  163.9134 C.3     1  UNL1        0.0774
     21 N         138.4048  139.0065  163.4198 N.3     1  UNL1       -0.2700
     22 C         139.2022  138.0910  164.3008 C.3     1  UNL1        0.0897
     23 C         138.0013  138.5614  162.0454 C.3     1  UNL1        0.0897
@<TRIPOS>BOND
     1    11    10    1
     2    11    12    1
     3    12    13   ar
     4    13    14   ar
     5    14    15   ar
     6    15    16   ar
     7    16    17   ar
     8    17    18    1
     9    11     1    1
    10     1     2   ar
    11     2    19    1
    12    19    20    1
    13    20    21    1
    14    21    22    1
    15    21    23    1
    16     2     3   ar
    17     3     4   ar
    18     4     5   ar
    19     5     6   ar
    20     6     7   ar
    21     7     8   ar
    22     8     9   ar
    23    17    12   ar
    24     9     1   ar
    25     9     4   ar
