@<TRIPOS>MOLECULE
*****
 45 49 0 0 0
SMALL
GASTEIGER

@<TRIPOS>ATOM
      1 C         141.4034  140.7955  162.0295 C.3     1  UNL1        0.0808
      2 C         140.9916  140.5630  163.4531 C.ar    1  UNL1        0.0375
      3 C         141.1058  141.6713  164.4574 C.ar    1  UNL1        0.0023
      4 C         140.6940  141.4388  165.8809 C.ar    1  UNL1        0.0181
      5 C         140.8081  142.5471  166.8852 C.ar    1  UNL1        0.0082
      6 C         140.3963  142.3145  168.3088 C.ar    1  UNL1        0.0347
      7 BR        140.5105  143.4228  169.3131 Br      1  UNL1       -0.0490
      8 C         139.8704  140.9738  168.7279 C.ar    1  UNL1        0.0082
      9 C         139.7562  139.8655  167.7236 C.ar    1  UNL1        0.0197
     10 C         140.1680  140.0980  166.3001 C.ar    1  UNL1        0.0844
     11 N         140.0538  138.9897  165.2958 N.ar    1  UNL1       -0.2119
     12 C         140.4656  139.2222  163.8722 C.ar    1  UNL1        0.2211
     13 O         140.3514  138.1140  162.8679 O.3     1  UNL1       -0.4563
     14 C         138.9248  137.6535  162.9207 C.3     1  UNL1        0.2542
     15 C         140.5235  140.3280  160.9083 C.ar    1  UNL1        0.0245
     16 C         139.0904  140.7667  160.8466 C.ar    1  UNL1        0.0200
     17 C         138.2105  140.2991  159.7254 C.ar    1  UNL1        0.1019
     18 N         138.7637  139.3928  158.6658 N.ar    1  UNL1       -0.2076
     19 C         140.1968  138.9541  158.7275 C.ar    1  UNL1        0.2598
     20 C         141.0767  139.4217  159.8488 C.ar    1  UNL1        0.1879
     21 O         140.7500  138.0479  157.6679 O.3     1  UNL1       -0.4541
     22 C         139.8728  137.5882  156.5414 C.3     1  UNL1        0.2543
     23 O         142.5098  138.9830  159.9104 O.3     1  UNL1       -0.4670
     24 C         142.8520  137.6044  160.3926 C.3     1  UNL1        0.2527
     25 C         142.6951  141.4956  161.7273 C.3     1  UNL1        0.1162
     26 O         143.4528  140.3841  162.3911 O.3     1  UNL1       -0.3820
     27 H         144.4037  140.5714  162.3499 H       1  UNL1        0.2107
     28 C         141.4502  144.0574  158.9638 C.ar    1  UNL1        0.2272
     29 C         142.2079  142.9460  159.6276 C.ar    1  UNL1        0.0559
     30 C         141.9374  142.6070  161.0635 C.ar    1  UNL1        0.0117
     31 C         140.9093  143.3795  161.8356 C.ar    1  UNL1        0.0559
     32 C         140.1516  144.4909  161.1718 C.ar    1  UNL1        0.2270
     33 N         140.4221  144.8299  159.7359 N.ar    1  UNL1       -0.1767
     34 C         142.0353  145.8101  157.1373 C.3     1  UNL1        0.2542
     35 O         141.7207  144.3964  157.5278 O.3     1  UNL1       -0.4561
     36 O         139.1235  145.2634  161.9440 O.3     1  UNL1       -0.4640
     37 C         138.5922  144.7199  163.2372 C.3     1  UNL1        0.1676
     38 C         137.5153  143.7469  163.6162 C.3     1  UNL1        0.0437
     39 C         137.8409  143.9513  165.0662 C.3     1  UNL1        0.0074
     40 C         138.9178  144.9242  164.6871 C.3     1  UNL1        0.0437
     41 C         143.9868  142.1956  161.4250 C.3     1  UNL1        0.0491
     42 C         144.9033  142.5945  162.5436 C.3     1  UNL1        0.0750
     43 N         144.3874  143.4387  163.6710 N.3     1  UNL1       -0.2702
     44 C         144.4127  142.9117  165.0751 C.3     1  UNL1        0.0897
     45 C         143.8463  144.8101  163.3943 C.3     1  UNL1        0.0897
@<TRIPOS>BOND
     1    34    35    1
     2    35    28    1
     3    28    29   ar
     4    29    30   ar
     5    30    25    1
     6    25    26    1
     7    25    41    1
     8    41    42    1
     9    42    43    1
    10    43    44    1
    11    43    45    1
    12    25     1    1
    13     1     2    1
    14     2     3   ar
    15     3     4   ar
    16     4     5   ar
    17     5     6   ar
    18     6     7    1
    19     6     8   ar
    20     8     9   ar
    21     9    10   ar
    22    10    11   ar
    23    11    12   ar
    24    12    13    1
    25    13    14    1
    26     1    15    1
    27    15    16   ar
    28    16    17   ar
    29    17    18   ar
    30    18    19   ar
    31    19    21    1
    32    21    22    1
    33    19    20   ar
    34    20    23    1
    35    23    24    1
    36    30    31   ar
    37    31    32   ar
    38    32    36    1
    39    36    37    1
    40    37    38    1
    41    38    39    1
    42    39    40    1
    43    32    33   ar
    44    33    28   ar
    45    12     2   ar
    46    20    15   ar
    47    40    37    1
    48    10     4   ar
    49    26    27    1
@<TRIPOS>MOLECULE
*****
 45 49 0 0 0
SMALL
GASTEIGER

@<TRIPOS>ATOM
      1 C         141.6842  140.6447  162.3548 C.3     1  UNL1        0.0808
      2 C         142.1430  141.0518  163.7237 C.ar    1  UNL1        0.0375
      3 C         141.1361  141.4048  164.7780 C.ar    1  UNL1        0.0023
      4 C         141.5949  141.8118  166.1469 C.ar    1  UNL1        0.0181
      5 C         140.5880  142.1649  167.2012 C.ar    1  UNL1        0.0082
      6 C         141.0468  142.5719  168.5701 C.ar    1  UNL1        0.0347
      7 BR        140.0399  142.9249  169.6244 Br      1  UNL1       -0.0490
      8 C         142.5124  142.6260  168.8846 C.ar    1  UNL1        0.0082
      9 C         143.5193  142.2730  167.8303 C.ar    1  UNL1        0.0197
     10 C         143.0606  141.8659  166.4615 C.ar    1  UNL1        0.0844
     11 N         144.0674  141.5129  165.4071 N.ar    1  UNL1       -0.2119
     12 C         143.6086  141.1058  164.0382 C.ar    1  UNL1        0.2211
     13 O         144.6155  140.7528  162.9839 O.3     1  UNL1       -0.4563
     14 C         145.6159  141.8705  162.9769 C.3     1  UNL1        0.2542
     15 C         142.3611  141.2054  161.1393 C.ar    1  UNL1        0.0245
     16 C         142.4311  142.6901  160.9376 C.ar    1  UNL1        0.0200
     17 C         143.1080  143.2508  159.7222 C.ar    1  UNL1        0.1019
     18 N         143.7149  142.3267  158.7083 N.ar    1  UNL1       -0.2076
     19 C         143.6449  140.8420  158.9100 C.ar    1  UNL1        0.2598
     20 C         142.9680  140.2813  160.1256 C.ar    1  UNL1        0.1879
     21 O         144.2518  139.9180  157.8963 O.3     1  UNL1       -0.4541
     22 C         143.4033  139.3472  156.7989 C.3     1  UNL1        0.2543
     23 O         142.8980  138.7966  160.3273 O.3     1  UNL1       -0.4670
     24 C         144.0386  138.0739  160.9805 C.3     1  UNL1        0.2527
     25 C         140.5484  139.6769  162.2014 C.3     1  UNL1        0.1162
     26 O         141.3320  138.6389  162.9489 O.3     1  UNL1       -0.3820
     27 H         140.8084  137.8252  163.0165 H       1  UNL1        0.2107
     28 C         138.7333  141.5906  159.2361 C.ar    1  UNL1        0.2272
     29 C         139.5168  140.5526  159.9836 C.ar    1  UNL1        0.0559
     30 C         139.7649  140.7149  161.4540 C.ar    1  UNL1        0.0117
     31 C         139.2294  141.9151  162.1769 C.ar    1  UNL1        0.0559
     32 C         138.4459  142.9531  161.4294 C.ar    1  UNL1        0.2270
     33 N         138.1978  142.7908  159.9590 N.ar    1  UNL1       -0.1767
     34 C         137.6065  142.4044  157.0411 C.3     1  UNL1        0.2542
     35 O         138.4853  141.4283  157.7656 O.3     1  UNL1       -0.4561
     36 O         137.9104  144.1533  162.1524 O.3     1  UNL1       -0.4640
     37 C         138.3188  144.4182  163.5713 C.3     1  UNL1        0.1676
     38 C         137.6627  144.2602  164.9110 C.3     1  UNL1        0.0437
     39 C         138.8963  144.7927  165.5779 C.3     1  UNL1        0.0074
     40 C         139.5523  144.9506  164.2382 C.3     1  UNL1        0.0437
     41 C         139.4127  138.7091  162.0481 C.3     1  UNL1        0.0491
     42 C         138.2545  138.7550  163.0002 C.3     1  UNL1        0.0750
     43 N         138.4994  138.7498  164.4800 N.3     1  UNL1       -0.2702
     44 C         138.1702  139.9625  165.2990 C.3     1  UNL1        0.0897
     45 C         139.0737  137.5317  165.1409 C.3     1  UNL1        0.0897
@<TRIPOS>BOND
     1    34    35    1
     2    35    28    1
     3    28    29   ar
     4    29    30   ar
     5    30    25    1
     6    25    26    1
     7    25    41    1
     8    41    42    1
     9    42    43    1
    10    43    44    1
    11    43    45    1
    12    25     1    1
    13     1     2    1
    14     2     3   ar
    15     3     4   ar
    16     4     5   ar
    17     5     6   ar
    18     6     7    1
    19     6     8   ar
    20     8     9   ar
    21     9    10   ar
    22    10    11   ar
    23    11    12   ar
    24    12    13    1
    25    13    14    1
    26     1    15    1
    27    15    16   ar
    28    16    17   ar
    29    17    18   ar
    30    18    19   ar
    31    19    21    1
    32    21    22    1
    33    19    20   ar
    34    20    23    1
    35    23    24    1
    36    30    31   ar
    37    31    32   ar
    38    32    36    1
    39    36    37    1
    40    37    38    1
    41    38    39    1
    42    39    40    1
    43    32    33   ar
    44    33    28   ar
    45    12     2   ar
    46    20    15   ar
    47    40    37    1
    48    10     4   ar
    49    26    27    1
@<TRIPOS>MOLECULE
*****
 45 49 0 0 0
SMALL
GASTEIGER

@<TRIPOS>ATOM
      1 C         141.9453  142.0289  162.0367 C.3     1  UNL1        0.0808
      2 C         142.2139  141.9989  163.5122 C.ar    1  UNL1        0.0375
      3 C         141.1513  141.5240  164.4584 C.ar    1  UNL1        0.0023
      4 C         141.4198  141.4940  165.9338 C.ar    1  UNL1        0.0181
      5 C         140.3572  141.0192  166.8800 C.ar    1  UNL1        0.0082
      6 C         140.6257  140.9892  168.3556 C.ar    1  UNL1        0.0347
      7 BR        139.5631  140.5143  169.3018 Br      1  UNL1       -0.0490
      8 C         141.9569  141.4341  168.8848 C.ar    1  UNL1        0.0082
      9 C         143.0195  141.9090  167.9386 C.ar    1  UNL1        0.0197
     10 C         142.7510  141.9390  166.4631 C.ar    1  UNL1        0.0844
     11 N         143.8136  142.4138  165.5169 N.ar    1  UNL1       -0.2119
     12 C         143.5450  142.4438  164.0414 C.ar    1  UNL1        0.2211
     13 O         144.6076  142.9187  163.0952 O.3     1  UNL1       -0.4563
     14 C         145.6264  141.8196  163.0323 C.3     1  UNL1        0.2542
     15 C         142.4992  140.9521  161.1515 C.ar    1  UNL1        0.0245
     16 C         142.1803  139.5133  161.4312 C.ar    1  UNL1        0.0200
     17 C         142.7342  138.4365  160.5461 C.ar    1  UNL1        0.1019
     18 N         143.6071  138.7984  159.3811 N.ar    1  UNL1       -0.2076
     19 C         143.9260  140.2372  159.1013 C.ar    1  UNL1        0.2598
     20 C         143.3721  141.3140  159.9866 C.ar    1  UNL1        0.1879
     21 O         144.7989  140.5991  157.9364 O.3     1  UNL1       -0.4541
     22 C         144.3503  140.2905  156.5388 C.3     1  UNL1        0.2543
     23 O         143.6910  142.7528  159.7068 O.3     1  UNL1       -0.4670
     24 C         143.1512  143.4146  158.4736 C.3     1  UNL1        0.2527
     25 C         141.1228  143.1358  161.4464 C.3     1  UNL1        0.1162
     26 O         142.1246  144.1401  161.9339 O.3     1  UNL1       -0.3820
     27 H         141.8391  145.0315  161.6791 H       1  UNL1        0.2107
     28 C         138.7921  141.0424  159.0101 C.ar    1  UNL1        0.2272
     29 C         139.7939  142.0468  159.4976 C.ar    1  UNL1        0.0559
     30 C         140.1210  142.1314  160.9590 C.ar    1  UNL1        0.0117
     31 C         139.4463  141.2116  161.9330 C.ar    1  UNL1        0.0559
     32 C         138.4445  140.2072  161.4455 C.ar    1  UNL1        0.2270
     33 N         138.1174  140.1226  159.9841 N.ar    1  UNL1       -0.1767
     34 C         137.2489  141.6518  157.0108 C.3     1  UNL1        0.2542
     35 O         138.4651  140.9578  157.5486 O.3     1  UNL1       -0.4561
     36 O         137.7697  139.2874  162.4196 O.3     1  UNL1       -0.4640
     37 C         138.5742  138.5999  163.4827 C.3     1  UNL1        0.1676
     38 C         138.5736  138.6044  164.9827 C.3     1  UNL1        0.0437
     39 C         139.7120  137.6276  164.9861 C.3     1  UNL1        0.0074
     40 C         139.7126  137.6232  163.4861 C.3     1  UNL1        0.0437
     41 C         140.3003  144.2426  160.8562 C.3     1  UNL1        0.0491
     42 C         139.6404  145.2472  161.7536 C.3     1  UNL1        0.0750
     43 N         139.0409  144.8089  163.0570 N.3     1  UNL1       -0.2702
     44 C         139.8192  144.9631  164.3299 C.3     1  UNL1        0.0897
     45 C         137.6632  144.2165  163.0873 C.3     1  UNL1        0.0897
@<TRIPOS>BOND
     1    34    35    1
     2    35    28    1
     3    28    29   ar
     4    29    30   ar
     5    30    25    1
     6    25    26    1
     7    25    41    1
     8    41    42    1
     9    42    43    1
    10    43    44    1
    11    43    45    1
    12    25     1    1
    13     1     2    1
    14     2     3   ar
    15     3     4   ar
    16     4     5   ar
    17     5     6   ar
    18     6     7    1
    19     6     8   ar
    20     8     9   ar
    21     9    10   ar
    22    10    11   ar
    23    11    12   ar
    24    12    13    1
    25    13    14    1
    26     1    15    1
    27    15    16   ar
    28    16    17   ar
    29    17    18   ar
    30    18    19   ar
    31    19    21    1
    32    21    22    1
    33    19    20   ar
    34    20    23    1
    35    23    24    1
    36    30    31   ar
    37    31    32   ar
    38    32    36    1
    39    36    37    1
    40    37    38    1
    41    38    39    1
    42    39    40    1
    43    32    33   ar
    44    33    28   ar
    45    12     2   ar
    46    20    15   ar
    47    40    37    1
    48    10     4   ar
    49    26    27    1
@<TRIPOS>MOLECULE
*****
 45 49 0 0 0
SMALL
GASTEIGER

@<TRIPOS>ATOM
      1 C         142.0732  141.5686  162.7089 C.3     1  UNL1        0.0808
      2 C         142.4146  141.7512  164.1581 C.ar    1  UNL1        0.0375
      3 C         141.6874  140.9609  165.2052 C.ar    1  UNL1        0.0023
      4 C         142.0287  141.1434  166.6544 C.ar    1  UNL1        0.0181
      5 C         141.3015  140.3531  167.7016 C.ar    1  UNL1        0.0082
      6 C         141.6428  140.5357  169.1508 C.ar    1  UNL1        0.0347
      7 BR        140.9156  139.7453  170.1979 Br      1  UNL1       -0.0490
      8 C         142.7114  141.5085  169.5528 C.ar    1  UNL1        0.0082
      9 C         143.4386  142.2989  168.5057 C.ar    1  UNL1        0.0197
     10 C         143.0973  142.1163  167.0565 C.ar    1  UNL1        0.0844
     11 N         143.8245  142.9066  166.0094 N.ar    1  UNL1       -0.2119
     12 C         143.4832  142.7241  164.5601 C.ar    1  UNL1        0.2211
     13 O         144.2104  143.5144  163.5130 O.3     1  UNL1       -0.4563
     14 C         143.7249  144.9270  163.6498 C.3     1  UNL1        0.2542
     15 C         141.1212  142.5137  162.0377 C.ar    1  UNL1        0.0245
     16 C         139.6784  142.5413  162.4469 C.ar    1  UNL1        0.0200
     17 C         138.7264  143.4864  161.7758 C.ar    1  UNL1        0.1019
     18 N         139.2172  144.4040  160.6955 N.ar    1  UNL1       -0.2076
     19 C         140.6601  144.3765  160.2863 C.ar    1  UNL1        0.2598
     20 C         141.6121  143.4313  160.9575 C.ar    1  UNL1        0.1879
     21 O         141.1510  145.2940  159.2060 O.3     1  UNL1       -0.4541
     22 C         140.4357  145.3518  157.8888 C.3     1  UNL1        0.2543
     23 O         143.0550  143.4038  160.5483 O.3     1  UNL1       -0.4670
     24 C         143.4297  143.0265  159.1457 C.3     1  UNL1        0.2527
     25 C         142.6839  140.4409  161.9308 C.3     1  UNL1        0.1162
     26 O         144.0348  141.0786  162.0668 O.3     1  UNL1       -0.3820
     27 H         144.6983  140.5285  161.6217 H       1  UNL1        0.2107
     28 C         139.1717  139.3832  160.4156 C.ar    1  UNL1        0.2272
     29 C         140.5226  140.0209  160.5516 C.ar    1  UNL1        0.0559
     30 C         141.3330  139.8032  161.7949 C.ar    1  UNL1        0.0117
     31 C         140.7926  138.9478  162.9021 C.ar    1  UNL1        0.0559
     32 C         139.4417  138.3101  162.7662 C.ar    1  UNL1        0.2270
     33 N         138.6313  138.5278  161.5229 N.ar    1  UNL1       -0.1767
     34 C         138.2336  140.9783  158.5919 C.3     1  UNL1        0.2542
     35 O         138.3612  139.6010  159.1723 O.3     1  UNL1       -0.4561
     36 O         138.9013  137.4546  163.8735 O.3     1  UNL1       -0.4640
     37 C         138.4810  138.0824  165.1694 C.3     1  UNL1        0.1676
     38 C         138.0422  137.5631  166.5065 C.3     1  UNL1        0.0437
     39 C         137.8866  138.9704  167.0020 C.3     1  UNL1        0.0074
     40 C         138.3254  139.4896  165.6649 C.3     1  UNL1        0.0437
     41 C         143.2946  139.3132  161.1528 C.3     1  UNL1        0.0491
     42 C         143.9865  139.5886  159.8507 C.3     1  UNL1        0.0750
     43 N         143.4190  139.0494  158.5711 N.3     1  UNL1       -0.2702
     44 C         142.6983  137.7340  158.5658 C.3     1  UNL1        0.0897
     45 C         143.5724  139.8258  157.2967 C.3     1  UNL1        0.0897
@<TRIPOS>BOND
     1    34    35    1
     2    35    28    1
     3    28    29   ar
     4    29    30   ar
     5    30    25    1
     6    25    26    1
     7    25    41    1
     8    41    42    1
     9    42    43    1
    10    43    44    1
    11    43    45    1
    12    25     1    1
    13     1     2    1
    14     2     3   ar
    15     3     4   ar
    16     4     5   ar
    17     5     6   ar
    18     6     7    1
    19     6     8   ar
    20     8     9   ar
    21     9    10   ar
    22    10    11   ar
    23    11    12   ar
    24    12    13    1
    25    13    14    1
    26     1    15    1
    27    15    16   ar
    28    16    17   ar
    29    17    18   ar
    30    18    19   ar
    31    19    21    1
    32    21    22    1
    33    19    20   ar
    34    20    23    1
    35    23    24    1
    36    30    31   ar
    37    31    32   ar
    38    32    36    1
    39    36    37    1
    40    37    38    1
    41    38    39    1
    42    39    40    1
    43    32    33   ar
    44    33    28   ar
    45    12     2   ar
    46    20    15   ar
    47    40    37    1
    48    10     4   ar
    49    26    27    1
@<TRIPOS>MOLECULE
*****
 45 49 0 0 0
SMALL
GASTEIGER

@<TRIPOS>ATOM
      1 C         141.4481  142.0264  162.2416 C.3     1  UNL1        0.0808
      2 C         141.1378  142.1599  163.7031 C.ar    1  UNL1        0.0375
      3 C         141.6836  141.1610  164.6800 C.ar    1  UNL1        0.0023
      4 C         141.3733  141.2945  166.1414 C.ar    1  UNL1        0.0181
      5 C         141.9192  140.2956  167.1183 C.ar    1  UNL1        0.0082
      6 C         141.6088  140.4291  168.5799 C.ar    1  UNL1        0.0347
      7 BR        142.1547  139.4303  169.5568 Br      1  UNL1       -0.0490
      8 C         140.7527  141.5614  169.0644 C.ar    1  UNL1        0.0082
      9 C         140.2068  142.5603  168.0875 C.ar    1  UNL1        0.0197
     10 C         140.5171  142.4268  166.6261 C.ar    1  UNL1        0.0844
     11 N         139.9713  143.4257  165.6492 N.ar    1  UNL1       -0.2119
     12 C         140.2816  143.2922  164.1876 C.ar    1  UNL1        0.2211
     13 O         139.7358  144.2910  163.2107 O.3     1  UNL1       -0.4563
     14 C         138.2424  144.1789  163.2958 C.3     1  UNL1        0.2542
     15 C         140.3342  141.8667  161.2499 C.ar    1  UNL1        0.0245
     16 C         139.2805  140.8215  161.4673 C.ar    1  UNL1        0.0200
     17 C         138.1666  140.6619  160.4755 C.ar    1  UNL1        0.1019
     18 N         138.1063  141.5475  159.2663 N.ar    1  UNL1       -0.2076
     19 C         139.1599  142.5927  159.0489 C.ar    1  UNL1        0.2598
     20 C         140.2739  142.7523  160.0407 C.ar    1  UNL1        0.1879
     21 O         139.0997  143.4783  157.8398 O.3     1  UNL1       -0.4541
     22 C         139.9205  143.1499  156.6280 C.3     1  UNL1        0.2543
     23 O         141.3276  143.7975  159.8233 O.3     1  UNL1       -0.4670
     24 C         141.0111  145.2435  160.0663 C.3     1  UNL1        0.2527
     25 C         142.8725  142.0525  161.7719 C.3     1  UNL1        0.1162
     26 O         143.0252  143.4434  162.3125 O.3     1  UNL1       -0.3820
     27 H         143.9265  143.7591  162.1426 H       1  UNL1        0.2107
     28 C         142.9795  138.9644  159.2816 C.ar    1  UNL1        0.2272
     29 C         143.1323  140.3552  159.8222 C.ar    1  UNL1        0.0559
     30 C         142.7197  140.6617  161.2313 C.ar    1  UNL1        0.0117
     31 C         142.1545  139.5773  162.1000 C.ar    1  UNL1        0.0559
     32 C         142.0018  138.1864  161.5594 C.ar    1  UNL1        0.2270
     33 N         142.4143  137.8800  160.1502 N.ar    1  UNL1       -0.1767
     34 C         142.6655  137.6040  157.0905 C.3     1  UNL1        0.2542
     35 O         143.3921  138.6579  157.8723 O.3     1  UNL1       -0.4561
     36 O         141.4365  137.1020  162.4281 O.3     1  UNL1       -0.4640
     37 C         140.3939  137.4308  163.4552 C.3     1  UNL1        0.1676
     38 C         138.9154  137.6823  163.4229 C.3     1  UNL1        0.0437
     39 C         138.9194  137.8958  164.9077 C.3     1  UNL1        0.0074
     40 C         140.3978  137.6443  164.9399 C.3     1  UNL1        0.0437
     41 C         144.2968  142.0787  161.3022 C.3     1  UNL1        0.0491
     42 C         145.4137  142.1716  162.2992 C.3     1  UNL1        0.0750
     43 N         145.1950  141.7245  163.7143 N.3     1  UNL1       -0.2702
     44 C         144.9542  142.7390  164.7926 C.3     1  UNL1        0.0897
     45 C         145.2172  140.2629  164.0509 C.3     1  UNL1        0.0897
@<TRIPOS>BOND
     1    34    35    1
     2    35    28    1
     3    28    29   ar
     4    29    30   ar
     5    30    25    1
     6    25    26    1
     7    25    41    1
     8    41    42    1
     9    42    43    1
    10    43    44    1
    11    43    45    1
    12    25     1    1
    13     1     2    1
    14     2     3   ar
    15     3     4   ar
    16     4     5   ar
    17     5     6   ar
    18     6     7    1
    19     6     8   ar
    20     8     9   ar
    21     9    10   ar
    22    10    11   ar
    23    11    12   ar
    24    12    13    1
    25    13    14    1
    26     1    15    1
    27    15    16   ar
    28    16    17   ar
    29    17    18   ar
    30    18    19   ar
    31    19    21    1
    32    21    22    1
    33    19    20   ar
    34    20    23    1
    35    23    24    1
    36    30    31   ar
    37    31    32   ar
    38    32    36    1
    39    36    37    1
    40    37    38    1
    41    38    39    1
    42    39    40    1
    43    32    33   ar
    44    33    28   ar
    45    12     2   ar
    46    20    15   ar
    47    40    37    1
    48    10     4   ar
    49    26    27    1
@<TRIPOS>MOLECULE
*****
 45 49 0 0 0
SMALL
GASTEIGER

@<TRIPOS>ATOM
      1 C         140.1637  141.5337  161.1510 C.3     1  UNL1        0.0808
      2 C         139.9389  141.0959  162.5681 C.ar    1  UNL1        0.0375
      3 C         140.9937  141.3429  163.6056 C.ar    1  UNL1        0.0023
      4 C         140.7690  140.9052  165.0225 C.ar    1  UNL1        0.0181
      5 C         141.8238  141.1522  166.0600 C.ar    1  UNL1        0.0082
      6 C         141.5991  140.7145  167.4771 C.ar    1  UNL1        0.0347
      7 BR        142.6539  140.9615  168.5146 Br      1  UNL1       -0.0490
      8 C         140.3196  140.0298  167.8566 C.ar    1  UNL1        0.0082
      9 C         139.2648  139.7828  166.8191 C.ar    1  UNL1        0.0197
     10 C         139.4895  140.2205  165.4021 C.ar    1  UNL1        0.0844
     11 N         138.4347  139.9735  164.3646 N.ar    1  UNL1       -0.2119
     12 C         138.6595  140.4112  162.9475 C.ar    1  UNL1        0.2211
     13 O         137.6047  140.1642  161.9100 O.3     1  UNL1       -0.4563
     14 C         137.6194  138.6872  161.6490 C.3     1  UNL1        0.2542
     15 C         140.3398  140.5101  160.0688 C.ar    1  UNL1        0.0245
     16 C         141.4849  139.5430  160.1303 C.ar    1  UNL1        0.0200
     17 C         141.6610  138.5195  159.0481 C.ar    1  UNL1        0.1019
     18 N         140.6921  138.4628  157.9044 N.ar    1  UNL1       -0.2076
     19 C         139.5471  139.4299  157.8429 C.ar    1  UNL1        0.2598
     20 C         139.3710  140.4535  158.9252 C.ar    1  UNL1        0.1879
     21 O         138.5782  139.3733  156.6992 O.3     1  UNL1       -0.4541
     22 C         138.8990  138.5541  155.4843 C.3     1  UNL1        0.2543
     23 O         138.2259  141.4205  158.8637 O.3     1  UNL1       -0.4670
     24 C         138.2388  142.5353  157.8600 C.3     1  UNL1        0.2527
     25 C         140.2123  142.9950  160.8162 C.3     1  UNL1        0.1162
     26 O         138.8063  143.1557  161.3136 O.3     1  UNL1       -0.3820
     27 H         138.5329  144.0813  161.2167 H       1  UNL1        0.2107
     28 C         143.3345  142.8829  158.3690 C.ar    1  UNL1        0.2272
     29 C         141.9285  143.0436  158.8663 C.ar    1  UNL1        0.0559
     30 C         141.6183  142.8343  160.3189 C.ar    1  UNL1        0.0117
     31 C         142.7140  142.4644  161.2740 C.ar    1  UNL1        0.0559
     32 C         144.1200  142.3037  160.7766 C.ar    1  UNL1        0.2270
     33 N         144.4302  142.5130  159.3241 N.ar    1  UNL1       -0.1767
     34 C         142.5853  142.8544  155.8814 C.3     1  UNL1        0.2542
     35 O         143.6447  143.0922  156.9163 O.3     1  UNL1       -0.4561
     36 O         145.2158  141.9337  161.7319 O.3     1  UNL1       -0.4640
     37 C         144.9691  140.9030  162.7934 C.3     1  UNL1        0.1676
     38 C         145.3317  140.7648  164.2424 C.3     1  UNL1        0.0437
     39 C         144.6201  139.4453  164.2947 C.3     1  UNL1        0.0074
     40 C         144.2576  139.5835  162.8457 C.3     1  UNL1        0.0437
     41 C         140.2609  144.4564  160.4815 C.3     1  UNL1        0.0491
     42 C         139.9897  145.4789  161.5450 C.3     1  UNL1        0.0750
     43 N         140.3657  145.1971  162.9695 N.3     1  UNL1       -0.2702
     44 C         139.3029  144.8627  163.9737 C.3     1  UNL1        0.0897
     45 C         141.8047  145.2499  163.3898 C.3     1  UNL1        0.0897
@<TRIPOS>BOND
     1    34    35    1
     2    35    28    1
     3    28    29   ar
     4    29    30   ar
     5    30    25    1
     6    25    26    1
     7    25    41    1
     8    41    42    1
     9    42    43    1
    10    43    44    1
    11    43    45    1
    12    25     1    1
    13     1     2    1
    14     2     3   ar
    15     3     4   ar
    16     4     5   ar
    17     5     6   ar
    18     6     7    1
    19     6     8   ar
    20     8     9   ar
    21     9    10   ar
    22    10    11   ar
    23    11    12   ar
    24    12    13    1
    25    13    14    1
    26     1    15    1
    27    15    16   ar
    28    16    17   ar
    29    17    18   ar
    30    18    19   ar
    31    19    21    1
    32    21    22    1
    33    19    20   ar
    34    20    23    1
    35    23    24    1
    36    30    31   ar
    37    31    32   ar
    38    32    36    1
    39    36    37    1
    40    37    38    1
    41    38    39    1
    42    39    40    1
    43    32    33   ar
    44    33    28   ar
    45    12     2   ar
    46    20    15   ar
    47    40    37    1
    48    10     4   ar
    49    26    27    1
@<TRIPOS>MOLECULE
*****
 45 49 0 0 0
SMALL
GASTEIGER

@<TRIPOS>ATOM
      1 C         141.4491  140.4829  160.6707 C.3     1  UNL1        0.0808
      2 C         141.6814  140.1395  162.1123 C.ar    1  UNL1        0.0375
      3 C         141.3384  141.1312  163.1841 C.ar    1  UNL1        0.0023
      4 C         141.5707  140.7879  164.6257 C.ar    1  UNL1        0.0181
      5 C         141.2277  141.7795  165.6976 C.ar    1  UNL1        0.0082
      6 C         141.4600  141.4362  167.1392 C.ar    1  UNL1        0.0347
      7 BR        141.1170  142.4278  168.2111 Br      1  UNL1       -0.0490
      8 C         142.0354  140.1012  167.5088 C.ar    1  UNL1        0.0082
      9 C         142.3785  139.1095  166.4370 C.ar    1  UNL1        0.0197
     10 C         142.1462  139.4528  164.9954 C.ar    1  UNL1        0.0844
     11 N         142.4892  138.4612  163.9235 N.ar    1  UNL1       -0.2119
     12 C         142.2569  138.8046  162.4819 C.ar    1  UNL1        0.2211
     13 O         142.5999  137.8129  161.4101 O.3     1  UNL1       -0.4563
     14 C         144.0970  137.8054  161.3176 C.3     1  UNL1        0.2542
     15 C         142.5953  140.9275  159.8114 C.ar    1  UNL1        0.0245
     16 C         143.3445  142.1820  160.1506 C.ar    1  UNL1        0.0200
     17 C         144.4908  142.6265  159.2913 C.ar    1  UNL1        0.1019
     18 N         144.8879  141.8166  158.0928 N.ar    1  UNL1       -0.2076
     19 C         144.1387  140.5622  157.7536 C.ar    1  UNL1        0.2598
     20 C         142.9924  140.1176  158.6129 C.ar    1  UNL1        0.1879
     21 O         144.5358  139.7523  156.5551 O.3     1  UNL1       -0.4541
     22 C         145.6036  140.2560  155.6299 C.3     1  UNL1        0.2543
     23 O         142.2432  138.8632  158.2737 O.3     1  UNL1       -0.4670
     24 C         141.3781  138.8141  157.0493 C.3     1  UNL1        0.2527
     25 C         140.0704  140.3817  160.0884 C.3     1  UNL1        0.1162
     26 O         140.1027  138.8932  160.2707 O.3     1  UNL1       -0.3820
     27 H         139.2691  138.5106  159.9551 H       1  UNL1        0.2107
     28 C         140.0410  143.9463  158.3440 C.ar    1  UNL1        0.2272
     29 C         140.0732  142.4577  158.5264 C.ar    1  UNL1        0.0559
     30 C         140.0381  141.8702  159.9060 C.ar    1  UNL1        0.0117
     31 C         139.9707  142.7712  161.1034 C.ar    1  UNL1        0.0559
     32 C         139.9384  144.2597  160.9210 C.ar    1  UNL1        0.2270
     33 N         139.9736  144.8473  159.5413 N.ar    1  UNL1       -0.1767
     34 C         140.0846  146.0228  156.7831 C.3     1  UNL1        0.2542
     35 O         140.0761  144.5338  156.9643 O.3     1  UNL1       -0.4561
     36 O         139.8710  145.1607  162.1184 O.3     1  UNL1       -0.4640
     37 C         139.0386  144.7715  163.3040 C.3     1  UNL1        0.1676
     38 C         139.2458  144.7659  164.7896 C.3     1  UNL1        0.0437
     39 C         137.8614  144.2210  164.9807 C.3     1  UNL1        0.0074
     40 C         137.6542  144.2266  163.4951 C.3     1  UNL1        0.0437
     41 C         138.6917  140.2805  159.5061 C.3     1  UNL1        0.0491
     42 C         137.5650  139.7397  160.3358 C.3     1  UNL1        0.0750
     43 N         137.7649  139.4917  161.8016 N.3     1  UNL1       -0.2702
     44 C         138.0996  138.1136  162.2902 C.3     1  UNL1        0.0897
     45 C         137.6301  140.6218  162.7787 C.3     1  UNL1        0.0897
@<TRIPOS>BOND
     1    34    35    1
     2    35    28    1
     3    28    29   ar
     4    29    30   ar
     5    30    25    1
     6    25    26    1
     7    25    41    1
     8    41    42    1
     9    42    43    1
    10    43    44    1
    11    43    45    1
    12    25     1    1
    13     1     2    1
    14     2     3   ar
    15     3     4   ar
    16     4     5   ar
    17     5     6   ar
    18     6     7    1
    19     6     8   ar
    20     8     9   ar
    21     9    10   ar
    22    10    11   ar
    23    11    12   ar
    24    12    13    1
    25    13    14    1
    26     1    15    1
    27    15    16   ar
    28    16    17   ar
    29    17    18   ar
    30    18    19   ar
    31    19    21    1
    32    21    22    1
    33    19    20   ar
    34    20    23    1
    35    23    24    1
    36    30    31   ar
    37    31    32   ar
    38    32    36    1
    39    36    37    1
    40    37    38    1
    41    38    39    1
    42    39    40    1
    43    32    33   ar
    44    33    28   ar
    45    12     2   ar
    46    20    15   ar
    47    40    37    1
    48    10     4   ar
    49    26    27    1
@<TRIPOS>MOLECULE
*****
 45 49 0 0 0
SMALL
GASTEIGER

@<TRIPOS>ATOM
      1 C         141.9912  141.7678  162.0975 C.3     1  UNL1        0.0808
      2 C         142.1890  141.9107  163.5775 C.ar    1  UNL1        0.0375
      3 C         141.1747  141.3463  164.5277 C.ar    1  UNL1        0.0023
      4 C         141.3725  141.4891  166.0077 C.ar    1  UNL1        0.0181
      5 C         140.3583  140.9247  166.9578 C.ar    1  UNL1        0.0082
      6 C         140.5561  141.0676  168.4379 C.ar    1  UNL1        0.0347
      7 BR        139.5418  140.5032  169.3880 Br      1  UNL1       -0.0490
      8 C         141.7681  141.7749  168.9677 C.ar    1  UNL1        0.0082
      9 C         142.7823  142.3393  168.0176 C.ar    1  UNL1        0.0197
     10 C         142.5846  142.1964  166.5376 C.ar    1  UNL1        0.0844
     11 N         143.5988  142.7608  165.5875 N.ar    1  UNL1       -0.2119
     12 C         143.4010  142.6179  164.1074 C.ar    1  UNL1        0.2211
     13 O         144.4152  143.1823  163.1572 O.3     1  UNL1       -0.4563
     14 C         144.1073  144.6461  163.0454 C.3     1  UNL1        0.2542
     15 C         141.6467  142.9687  161.2674 C.ar    1  UNL1        0.0245
     16 C         140.6067  143.9379  161.7460 C.ar    1  UNL1        0.0200
     17 C         140.2622  145.1389  160.9160 C.ar    1  UNL1        0.1019
     18 N         140.9577  145.3707  159.6073 N.ar    1  UNL1       -0.2076
     19 C         141.9978  144.4015  159.1288 C.ar    1  UNL1        0.2598
     20 C         142.3422  143.2005  159.9589 C.ar    1  UNL1        0.1879
     21 O         142.6933  144.6333  157.8202 O.3     1  UNL1       -0.4541
     22 C         142.1989  145.6979  156.8863 C.3     1  UNL1        0.2543
     23 O         143.3823  142.2313  159.4803 O.3     1  UNL1       -0.4670
     24 C         144.8382  142.5669  159.6139 C.3     1  UNL1        0.2527
     25 C         142.1378  140.4239  161.4475 C.3     1  UNL1        0.1162
     26 O         143.5598  140.3508  161.9194 O.3     1  UNL1       -0.3820
     27 H         143.9557  139.5157  161.6249 H       1  UNL1        0.2107
     28 C         138.9432  140.1401  159.1101 C.ar    1  UNL1        0.2272
     29 C         140.3651  140.0670  159.5820 C.ar    1  UNL1        0.0559
     30 C         140.7159  140.4969  160.9756 C.ar    1  UNL1        0.0117
     31 C         139.6447  140.9999  161.8973 C.ar    1  UNL1        0.0559
     32 C         138.2227  141.0729  161.4253 C.ar    1  UNL1        0.2270
     33 N         137.8720  140.6430  160.0318 N.ar    1  UNL1       -0.1767
     34 C         137.9412  140.6788  156.7743 C.3     1  UNL1        0.2542
     35 O         138.5925  139.7102  157.7164 O.3     1  UNL1       -0.4561
     36 O         137.1515  141.5759  162.3471 O.3     1  UNL1       -0.4640
     37 C         137.4650  142.6503  163.3458 C.3     1  UNL1        0.1676
     38 C         137.5165  144.1490  163.3104 C.3     1  UNL1        0.0437
     39 C         137.9085  144.1697  164.7582 C.3     1  UNL1        0.0074
     40 C         137.8570  142.6711  164.7935 C.3     1  UNL1        0.0437
     41 C         142.2845  139.0800  160.7976 C.3     1  UNL1        0.0491
     42 C         142.4073  137.8472  161.6433 C.3     1  UNL1        0.0750
     43 N         141.6870  137.7638  162.9564 N.3     1  UNL1       -0.2702
     44 C         140.2157  137.4738  162.9877 C.3     1  UNL1        0.0897
     45 C         142.4381  137.9703  164.2383 C.3     1  UNL1        0.0897
@<TRIPOS>BOND
     1    34    35    1
     2    35    28    1
     3    28    29   ar
     4    29    30   ar
     5    30    25    1
     6    25    26    1
     7    25    41    1
     8    41    42    1
     9    42    43    1
    10    43    44    1
    11    43    45    1
    12    25     1    1
    13     1     2    1
    14     2     3   ar
    15     3     4   ar
    16     4     5   ar
    17     5     6   ar
    18     6     7    1
    19     6     8   ar
    20     8     9   ar
    21     9    10   ar
    22    10    11   ar
    23    11    12   ar
    24    12    13    1
    25    13    14    1
    26     1    15    1
    27    15    16   ar
    28    16    17   ar
    29    17    18   ar
    30    18    19   ar
    31    19    21    1
    32    21    22    1
    33    19    20   ar
    34    20    23    1
    35    23    24    1
    36    30    31   ar
    37    31    32   ar
    38    32    36    1
    39    36    37    1
    40    37    38    1
    41    38    39    1
    42    39    40    1
    43    32    33   ar
    44    33    28   ar
    45    12     2   ar
    46    20    15   ar
    47    40    37    1
    48    10     4   ar
    49    26    27    1
@<TRIPOS>MOLECULE
*****
 45 49 0 0 0
SMALL
GASTEIGER

@<TRIPOS>ATOM
      1 C         141.6519  141.2325  160.1896 C.3     1  UNL1        0.0808
      2 C         141.0828  140.2102  161.1283 C.ar    1  UNL1        0.0375
      3 C         140.6083  140.6241  162.4898 C.ar    1  UNL1        0.0023
      4 C         140.0392  139.6019  163.4285 C.ar    1  UNL1        0.0181
      5 C         139.5647  140.0157  164.7900 C.ar    1  UNL1        0.0082
      6 C         138.9956  138.9934  165.7287 C.ar    1  UNL1        0.0347
      7 BR        138.5211  139.4072  167.0901 Br      1  UNL1       -0.0490
      8 C         138.9010  137.5574  165.3059 C.ar    1  UNL1        0.0082
      9 C         139.3755  137.1435  163.9444 C.ar    1  UNL1        0.0197
     10 C         139.9446  138.1657  163.0057 C.ar    1  UNL1        0.0844
     11 N         140.4191  137.7519  161.6443 N.ar    1  UNL1       -0.2119
     12 C         140.9882  138.7742  160.7056 C.ar    1  UNL1        0.2211
     13 O         141.4627  138.3603  159.3441 O.3     1  UNL1       -0.4563
     14 C         142.8383  137.7950  159.5399 C.3     1  UNL1        0.2542
     15 C         141.1287  141.3370  158.7878 C.ar    1  UNL1        0.0245
     16 C         142.0697  141.2208  157.6254 C.ar    1  UNL1        0.0200
     17 C         141.5465  141.3254  156.2235 C.ar    1  UNL1        0.1019
     18 N         140.0823  141.5461  155.9840 N.ar    1  UNL1       -0.2076
     19 C         139.1413  141.6622  157.1463 C.ar    1  UNL1        0.2598
     20 C         139.6646  141.5577  158.5482 C.ar    1  UNL1        0.1879
     21 O         137.6771  141.8829  156.9068 O.3     1  UNL1       -0.4541
     22 C         136.8377  140.7828  156.3280 C.3     1  UNL1        0.2543
     23 O         138.7236  141.6739  159.7106 O.3     1  UNL1       -0.4670
     24 C         137.8098  140.5345  160.0526 C.3     1  UNL1        0.2527
     25 C         142.7443  142.1502  160.6529 C.3     1  UNL1        0.1162
     26 O         143.6294  140.9669  160.9101 O.3     1  UNL1       -0.3820
     27 H         144.4862  141.2713  161.2480 H       1  UNL1        0.2107
     28 C         141.1531  145.3304  158.8910 C.ar    1  UNL1        0.2272
     29 C         142.0382  144.1471  159.1482 C.ar    1  UNL1        0.0559
     30 C         141.8591  143.3336  160.3957 C.ar    1  UNL1        0.0117
     31 C         140.7949  143.7035  161.3859 C.ar    1  UNL1        0.0559
     32 C         139.9098  144.8869  161.1286 C.ar    1  UNL1        0.2270
     33 N         140.0888  145.7003  159.8812 N.ar    1  UNL1       -0.1767
     34 C         140.2851  146.1110  156.5699 C.3     1  UNL1        0.2542
     35 O         141.3322  146.1439  157.6435 O.3     1  UNL1       -0.4561
     36 O         138.8455  145.2568  162.1189 O.3     1  UNL1       -0.4640
     37 C         138.3368  144.2334  163.0905 C.3     1  UNL1        0.1676
     38 C         138.3034  144.1146  164.5855 C.3     1  UNL1        0.0437
     39 C         137.6174  142.7861  164.4646 C.3     1  UNL1        0.0074
     40 C         137.6509  142.9049  162.9697 C.3     1  UNL1        0.0437
     41 C         143.8366  143.0680  161.1161 C.3     1  UNL1        0.0491
     42 C         144.0061  143.3536  162.5790 C.3     1  UNL1        0.0750
     43 N         144.3929  142.2502  163.5187 N.3     1  UNL1       -0.2702
     44 C         143.3826  141.6927  164.4769 C.3     1  UNL1        0.0897
     45 C         145.7900  141.7045  163.5000 C.3     1  UNL1        0.0897
@<TRIPOS>BOND
     1    34    35    1
     2    35    28    1
     3    28    29   ar
     4    29    30   ar
     5    30    25    1
     6    25    26    1
     7    25    41    1
     8    41    42    1
     9    42    43    1
    10    43    44    1
    11    43    45    1
    12    25     1    1
    13     1     2    1
    14     2     3   ar
    15     3     4   ar
    16     4     5   ar
    17     5     6   ar
    18     6     7    1
    19     6     8   ar
    20     8     9   ar
    21     9    10   ar
    22    10    11   ar
    23    11    12   ar
    24    12    13    1
    25    13    14    1
    26     1    15    1
    27    15    16   ar
    28    16    17   ar
    29    17    18   ar
    30    18    19   ar
    31    19    21    1
    32    21    22    1
    33    19    20   ar
    34    20    23    1
    35    23    24    1
    36    30    31   ar
    37    31    32   ar
    38    32    36    1
    39    36    37    1
    40    37    38    1
    41    38    39    1
    42    39    40    1
    43    32    33   ar
    44    33    28   ar
    45    12     2   ar
    46    20    15   ar
    47    40    37    1
    48    10     4   ar
    49    26    27    1
