@<TRIPOS>MOLECULE
*****
 34 37 0 0 0
SMALL
GASTEIGER

@<TRIPOS>ATOM
      1 C         142.6465  137.8616  162.7327 C.3     1  UNL1        0.1875
      2 C         142.5204  138.9361  163.7717 C.ar    1  UNL1        0.0901
      3 C         142.5880  138.5828  165.2280 C.ar    1  UNL1        0.0212
      4 C         142.4619  139.6574  166.2670 C.ar    1  UNL1        0.0754
      5 C         142.2681  141.0851  165.8498 C.ar    1  UNL1        0.0382
      6 C         142.2005  141.4383  164.3935 C.ar    1  UNL1        0.1313
      7 N         142.3267  140.3638  163.3545 N.ar    1  UNL1       -0.2325
      8 N         142.0068  142.8660  163.9763 N.pl3   1  UNL1       -0.2922
      9 C         142.8545  144.0301  164.3965 C.3     1  UNL1        0.0933
     10 C         142.3031  145.2639  163.7456 C.3     1  UNL1        0.0383
     11 C         141.1146  144.8624  162.9232 C.3     1  UNL1        0.1128
     12 C         140.9316  143.3804  163.0658 C.3     1  UNL1        0.1072
     13 C         140.2594  145.7815  162.1023 C.1     1  UNL1        0.0739
     14 N         139.4041  146.7005  161.2814 N.1     1  UNL1       -0.1958
     15 C         142.5295  139.3042  167.7233 C.3     1  UNL1        0.4187
     16 F         142.5970  138.9511  169.1795 F       1  UNL1       -0.1659
     17 F         141.4579  140.3119  168.0173 F       1  UNL1       -0.1659
     18 F         143.6009  138.2965  167.4292 F       1  UNL1       -0.1659
     19 O         141.4729  137.5163  161.8647 O.3     1  UNL1       -0.3470
     20 C         140.0783  137.6528  162.3999 C.3     1  UNL1        0.1467
     21 C         137.9223  140.7724  158.1031 C.3     1  UNL1        0.0896
     22 N         138.3481  140.1059  159.3776 N.3     1  UNL1       -0.2715
     23 C         137.8169  140.5936  160.6929 C.3     1  UNL1        0.0725
     24 C         138.2427  139.9271  161.9674 C.3     1  UNL1        0.0238
     25 C         139.1998  138.7728  161.9267 C.3     1  UNL1        0.0489
     26 C         139.7310  138.2851  160.6115 C.3     1  UNL1        0.0238
     27 C         139.3052  138.9516  159.3370 C.3     1  UNL1        0.0725
     28 C         138.9736  138.8716  163.4063 C.ar    1  UNL1       -0.0202
     29 C         138.8156  140.2159  164.0528 C.ar    1  UNL1       -0.0019
     30 C         138.5894  140.3147  165.5323 C.ar    1  UNL1        0.0293
     31 C         138.5214  139.0692  166.3654 C.ar    1  UNL1        0.1401
     32 F         138.2952  139.1680  167.8450 F       1  UNL1       -0.2042
     33 C         138.6794  137.7249  165.7190 C.ar    1  UNL1        0.0293
     34 C         138.9055  137.6261  164.2394 C.ar    1  UNL1       -0.0019
@<TRIPOS>BOND
     1    21    22    1
     2    22    23    1
     3    23    24    1
     4    24    25    1
     5    25    20    1
     6    20    19    1
     7    19     1    1
     8     1     2    1
     9     2     3   ar
    10     3     4   ar
    11     4    15    1
    12    15    16    1
    13    15    17    1
    14    15    18    1
    15     4     5   ar
    16     5     6   ar
    17     6     8    1
    18     8     9    1
    19     9    10    1
    20    10    11    1
    21    11    13    1
    22    13    14    3
    23    11    12    1
    24     6     7   ar
    25    25    28    1
    26    28    29   ar
    27    29    30   ar
    28    30    31   ar
    29    31    32    1
    30    31    33   ar
    31    33    34   ar
    32    25    26    1
    33    26    27    1
    34    27    22    1
    35     7     2   ar
    36    34    28   ar
    37    12     8    1
@<TRIPOS>MOLECULE
*****
 34 37 0 0 0
SMALL
GASTEIGER

@<TRIPOS>ATOM
      1 C         143.9937  139.2398  164.2770 C.3     1  UNL1        0.1875
      2 C         142.9768  139.9283  165.1382 C.ar    1  UNL1        0.0901
      3 C         142.6969  139.4190  166.5212 C.ar    1  UNL1        0.0212
      4 C         141.6800  140.1076  167.3824 C.ar    1  UNL1        0.0754
      5 C         140.9429  141.3053  166.8608 C.ar    1  UNL1        0.0382
      6 C         141.2227  141.8145  165.4778 C.ar    1  UNL1        0.1313
      7 N         142.2396  141.1260  164.6166 N.ar    1  UNL1       -0.2325
      8 N         140.4856  143.0122  164.9562 N.pl3   1  UNL1       -0.2922
      9 C         139.4280  143.7842  165.6881 C.3     1  UNL1        0.0933
     10 C         138.9653  144.8974  164.7955 C.3     1  UNL1        0.0383
     11 C         139.7369  144.8133  163.5119 C.3     1  UNL1        0.1128
     12 C         140.6765  143.6482  163.6113 C.3     1  UNL1        0.1072
     13 C         139.5941  145.7329  162.3354 C.1     1  UNL1        0.0739
     14 N         139.4513  146.6525  161.1591 N.1     1  UNL1       -0.1958
     15 C         141.4001  139.5984  168.7653 C.3     1  UNL1        0.4187
     16 F         141.1203  139.0892  170.1482 F       1  UNL1       -0.1659
     17 F         142.8692  139.6133  169.0680 F       1  UNL1       -0.1659
     18 F         139.9311  139.5835  168.4625 F       1  UNL1       -0.1659
     19 O         143.5663  138.5586  163.0107 O.3     1  UNL1       -0.3470
     20 C         142.2254  137.8908  162.9341 C.3     1  UNL1        0.1467
     21 C         141.3268  138.2690  157.2869 C.3     1  UNL1        0.0896
     22 N         141.3198  138.2408  158.7866 N.3     1  UNL1       -0.2715
     23 C         140.0701  138.5933  159.5375 C.3     1  UNL1        0.0725
     24 C         140.0631  138.5652  161.0373 C.3     1  UNL1        0.0238
     25 C         141.3058  138.1845  161.7860 C.3     1  UNL1        0.0489
     26 C         142.5555  137.8319  161.0351 C.3     1  UNL1        0.0238
     27 C         142.5625  137.8601  159.5354 C.3     1  UNL1        0.0725
     28 C         140.3754  138.4350  162.9357 C.ar    1  UNL1       -0.0202
     29 C         140.3408  137.4825  164.0939 C.ar    1  UNL1       -0.0019
     30 C         139.4105  137.7330  165.2435 C.ar    1  UNL1        0.0293
     31 C         138.5147  138.9361  165.2350 C.ar    1  UNL1        0.1401
     32 F         137.5844  139.1867  166.3846 F       1  UNL1       -0.2042
     33 C         138.5493  139.8887  164.0768 C.ar    1  UNL1        0.0293
     34 C         139.4796  139.6382  162.9271 C.ar    1  UNL1       -0.0019
@<TRIPOS>BOND
     1    21    22    1
     2    22    23    1
     3    23    24    1
     4    24    25    1
     5    25    20    1
     6    20    19    1
     7    19     1    1
     8     1     2    1
     9     2     3   ar
    10     3     4   ar
    11     4    15    1
    12    15    16    1
    13    15    17    1
    14    15    18    1
    15     4     5   ar
    16     5     6   ar
    17     6     8    1
    18     8     9    1
    19     9    10    1
    20    10    11    1
    21    11    13    1
    22    13    14    3
    23    11    12    1
    24     6     7   ar
    25    25    28    1
    26    28    29   ar
    27    29    30   ar
    28    30    31   ar
    29    31    32    1
    30    31    33   ar
    31    33    34   ar
    32    25    26    1
    33    26    27    1
    34    27    22    1
    35     7     2   ar
    36    34    28   ar
    37    12     8    1
@<TRIPOS>MOLECULE
*****
 34 37 0 0 0
SMALL
GASTEIGER

@<TRIPOS>ATOM
      1 C         140.6785  137.4607  162.5830 C.3     1  UNL1        0.1875
      2 C         139.8424  138.2859  163.5157 C.ar    1  UNL1        0.0901
      3 C         139.1753  137.6410  164.6943 C.ar    1  UNL1        0.0212
      4 C         138.3392  138.4663  165.6270 C.ar    1  UNL1        0.0754
      5 C         138.1702  139.9363  165.3811 C.ar    1  UNL1        0.0382
      6 C         138.8374  140.5812  164.2024 C.ar    1  UNL1        0.1313
      7 N         139.6735  139.7560  163.2697 N.ar    1  UNL1       -0.2325
      8 N         138.6684  142.0512  163.9566 N.pl3   1  UNL1       -0.2922
      9 C         137.8270  142.9901  164.7694 C.3     1  UNL1        0.0933
     10 C         137.9497  144.3595  164.1700 C.3     1  UNL1        0.0383
     11 C         138.8669  144.2671  162.9866 C.3     1  UNL1        0.1128
     12 C         139.3111  142.8404  162.8548 C.3     1  UNL1        0.1072
     13 C         139.2693  145.4021  162.0922 C.1     1  UNL1        0.0739
     14 N         139.6716  146.5370  161.1978 N.1     1  UNL1       -0.1958
     15 C         137.6720  137.8216  166.8057 C.3     1  UNL1        0.4187
     16 F         137.0048  137.1768  167.9842 F       1  UNL1       -0.1659
     17 F         137.7615  136.4872  166.1263 F       1  UNL1       -0.1659
     18 F         137.5825  139.1559  167.4849 F       1  UNL1       -0.1659
     19 O         142.1415  137.7538  162.4290 O.3     1  UNL1       -0.3470
     20 C         142.9143  138.3365  163.5749 C.3     1  UNL1        0.1467
     21 C         144.8814  142.7733  160.5274 C.3     1  UNL1        0.0896
     22 N         144.3827  141.7687  161.5234 N.3     1  UNL1       -0.2715
     23 C         144.2531  142.1466  162.9692 C.3     1  UNL1        0.0725
     24 C         143.7544  141.1420  163.9652 C.3     1  UNL1        0.0238
     25 C         143.3853  139.7595  163.5154 C.3     1  UNL1        0.0489
     26 C         143.5149  139.3816  162.0696 C.3     1  UNL1        0.0238
     27 C         144.0136  140.3862  161.0736 C.3     1  UNL1        0.0725
     28 C         143.0922  139.6432  164.9819 C.ar    1  UNL1       -0.0202
     29 C         142.1952  140.6433  165.6491 C.ar    1  UNL1       -0.0019
     30 C         141.9021  140.5271  167.1155 C.ar    1  UNL1        0.0293
     31 C         142.5060  139.4107  167.9148 C.ar    1  UNL1        0.1401
     32 F         142.2128  139.2944  169.3813 F       1  UNL1       -0.2042
     33 C         143.4029  138.4105  167.2477 C.ar    1  UNL1        0.0293
     34 C         143.6961  138.5268  165.7812 C.ar    1  UNL1       -0.0019
@<TRIPOS>BOND
     1    21    22    1
     2    22    23    1
     3    23    24    1
     4    24    25    1
     5    25    20    1
     6    20    19    1
     7    19     1    1
     8     1     2    1
     9     2     3   ar
    10     3     4   ar
    11     4    15    1
    12    15    16    1
    13    15    17    1
    14    15    18    1
    15     4     5   ar
    16     5     6   ar
    17     6     8    1
    18     8     9    1
    19     9    10    1
    20    10    11    1
    21    11    13    1
    22    13    14    3
    23    11    12    1
    24     6     7   ar
    25    25    28    1
    26    28    29   ar
    27    29    30   ar
    28    30    31   ar
    29    31    32    1
    30    31    33   ar
    31    33    34   ar
    32    25    26    1
    33    26    27    1
    34    27    22    1
    35     7     2   ar
    36    34    28   ar
    37    12     8    1
@<TRIPOS>MOLECULE
*****
 34 37 0 0 0
SMALL
GASTEIGER

@<TRIPOS>ATOM
      1 C         142.9082  138.0234  162.8290 C.3     1  UNL1        0.1875
      2 C         143.0098  139.2330  163.7102 C.ar    1  UNL1        0.0901
      3 C         143.4458  140.5471  163.1328 C.ar    1  UNL1        0.0212
      4 C         143.5475  141.7566  164.0140 C.ar    1  UNL1        0.0754
      5 C         143.2132  141.6523  165.4725 C.ar    1  UNL1        0.0382
      6 C         142.7772  140.3383  166.0499 C.ar    1  UNL1        0.1313
      7 N         142.6755  139.1286  165.1688 N.ar    1  UNL1       -0.2325
      8 N         142.4428  140.2340  167.5084 N.pl3   1  UNL1       -0.2922
      9 C         142.7286  139.0594  168.3966 C.3     1  UNL1        0.0933
     10 C         142.2265  139.3853  169.7720 C.3     1  UNL1        0.0383
     11 C         141.6304  140.7612  169.7338 C.3     1  UNL1        0.1128
     12 C         141.7641  141.2857  168.3349 C.3     1  UNL1        0.1072
     13 C         141.0096  141.4856  170.8914 C.1     1  UNL1        0.0739
     14 N         140.3888  142.2099  172.0490 N.1     1  UNL1       -0.1958
     15 C         143.9835  143.0707  163.4367 C.3     1  UNL1        0.4187
     16 F         144.4194  144.3847  162.8593 F       1  UNL1       -0.1659
     17 F         143.0673  142.8609  162.2676 F       1  UNL1       -0.1659
     18 F         144.8995  143.2804  164.6058 F       1  UNL1       -0.1659
     19 O         141.7015  137.8281  161.9596 O.3     1  UNL1       -0.3470
     20 C         140.3272  137.9053  162.5557 C.3     1  UNL1        0.1467
     21 C         137.7825  140.6952  158.2450 C.3     1  UNL1        0.0896
     22 N         138.3087  140.1134  159.5235 N.3     1  UNL1       -0.2715
     23 C         137.8133  140.6291  160.8420 C.3     1  UNL1        0.0725
     24 C         138.3395  140.0473  162.1205 C.3     1  UNL1        0.0238
     25 C         139.3611  138.9497  162.0805 C.3     1  UNL1        0.0489
     26 C         139.8565  138.4340  160.7620 C.3     1  UNL1        0.0238
     27 C         139.3303  139.0158  159.4835 C.3     1  UNL1        0.0725
     28 C         139.2012  139.1027  163.5641 C.ar    1  UNL1       -0.0202
     29 C         138.8415  137.9147  164.4062 C.ar    1  UNL1       -0.0019
     30 C         138.6816  138.0677  165.8898 C.ar    1  UNL1        0.0293
     31 C         138.8815  139.4088  166.5312 C.ar    1  UNL1        0.1401
     32 F         138.7216  139.5618  168.0149 F       1  UNL1       -0.2042
     33 C         139.2412  140.5969  165.6892 C.ar    1  UNL1        0.0293
     34 C         139.4011  140.4438  164.2056 C.ar    1  UNL1       -0.0019
@<TRIPOS>BOND
     1    21    22    1
     2    22    23    1
     3    23    24    1
     4    24    25    1
     5    25    20    1
     6    20    19    1
     7    19     1    1
     8     1     2    1
     9     2     3   ar
    10     3     4   ar
    11     4    15    1
    12    15    16    1
    13    15    17    1
    14    15    18    1
    15     4     5   ar
    16     5     6   ar
    17     6     8    1
    18     8     9    1
    19     9    10    1
    20    10    11    1
    21    11    13    1
    22    13    14    3
    23    11    12    1
    24     6     7   ar
    25    25    28    1
    26    28    29   ar
    27    29    30   ar
    28    30    31   ar
    29    31    32    1
    30    31    33   ar
    31    33    34   ar
    32    25    26    1
    33    26    27    1
    34    27    22    1
    35     7     2   ar
    36    34    28   ar
    37    12     8    1
@<TRIPOS>MOLECULE
*****
 34 37 0 0 0
SMALL
GASTEIGER

@<TRIPOS>ATOM
      1 C         138.1964  141.4584  161.0684 C.3     1  UNL1        0.1875
      2 C         138.9076  141.8104  162.3413 C.ar    1  UNL1        0.0901
      3 C         138.3883  142.9185  163.2088 C.ar    1  UNL1        0.0212
      4 C         139.0996  143.2704  164.4817 C.ar    1  UNL1        0.0754
      5 C         140.3299  142.5142  164.8872 C.ar    1  UNL1        0.0382
      6 C         140.8492  141.4061  164.0197 C.ar    1  UNL1        0.1313
      7 N         140.1380  141.0542  162.7468 N.ar    1  UNL1       -0.2325
      8 N         142.0795  140.6500  164.4252 N.pl3   1  UNL1       -0.2922
      9 C         143.4598  140.8509  163.8732 C.3     1  UNL1        0.0933
     10 C         144.3790  139.8854  164.5606 C.3     1  UNL1        0.0383
     11 C         143.5669  139.0876  165.5375 C.3     1  UNL1        0.1128
     12 C         142.1457  139.5602  165.4537 C.3     1  UNL1        0.1072
     13 C         144.0850  138.0070  166.4396 C.1     1  UNL1        0.0739
     14 N         144.6031  136.9264  167.3418 N.1     1  UNL1       -0.1958
     15 C         138.5804  144.3785  165.3493 C.3     1  UNL1        0.4187
     16 F         138.0613  145.4866  166.2168 F       1  UNL1       -0.1659
     17 F         139.7031  144.1470  166.3167 F       1  UNL1       -0.1659
     18 F         137.4577  144.6099  164.3818 F       1  UNL1       -0.1659
     19 O         138.4855  142.2243  159.8114 O.3     1  UNL1       -0.3470
     20 C         139.8508  142.8016  159.5821 C.3     1  UNL1        0.1467
     21 C         139.1409  146.0596  154.9213 C.3     1  UNL1        0.0896
     22 N         139.4270  145.4149  156.2451 N.3     1  UNL1       -0.2715
     23 C         140.0653  146.2109  157.3446 C.3     1  UNL1        0.0725
     24 C         140.3514  145.5662  158.6685 C.3     1  UNL1        0.0238
     25 C         139.9992  144.1255  158.8928 C.3     1  UNL1        0.0489
     26 C         139.3610  143.3295  157.7933 C.3     1  UNL1        0.0238
     27 C         139.0748  143.9742  156.4695 C.3     1  UNL1        0.0725
     28 C         140.5860  144.4618  160.2317 C.ar    1  UNL1       -0.0202
     29 C         141.7956  143.7257  160.7267 C.ar    1  UNL1       -0.0019
     30 C         142.3824  144.0619  162.0655 C.ar    1  UNL1        0.0293
     31 C         141.7595  145.1342  162.9095 C.ar    1  UNL1        0.1401
     32 F         142.3463  145.4704  164.2484 F       1  UNL1       -0.2042
     33 C         140.5499  145.8703  162.4146 C.ar    1  UNL1        0.0293
     34 C         139.9631  145.5340  161.0756 C.ar    1  UNL1       -0.0019
@<TRIPOS>BOND
     1    21    22    1
     2    22    23    1
     3    23    24    1
     4    24    25    1
     5    25    20    1
     6    20    19    1
     7    19     1    1
     8     1     2    1
     9     2     3   ar
    10     3     4   ar
    11     4    15    1
    12    15    16    1
    13    15    17    1
    14    15    18    1
    15     4     5   ar
    16     5     6   ar
    17     6     8    1
    18     8     9    1
    19     9    10    1
    20    10    11    1
    21    11    13    1
    22    13    14    3
    23    11    12    1
    24     6     7   ar
    25    25    28    1
    26    28    29   ar
    27    29    30   ar
    28    30    31   ar
    29    31    32    1
    30    31    33   ar
    31    33    34   ar
    32    25    26    1
    33    26    27    1
    34    27    22    1
    35     7     2   ar
    36    34    28   ar
    37    12     8    1
@<TRIPOS>MOLECULE
*****
 34 37 0 0 0
SMALL
GASTEIGER

@<TRIPOS>ATOM
      1 C         143.3768  141.6400  164.7506 C.3     1  UNL1        0.1875
      2 C         142.0036  141.9868  164.2566 C.ar    1  UNL1        0.0901
      3 C         141.1890  143.0239  164.9715 C.ar    1  UNL1        0.0212
      4 C         139.8158  143.3706  164.4775 C.ar    1  UNL1        0.0754
      5 C         139.2572  142.6804  163.2686 C.ar    1  UNL1        0.0382
      6 C         140.0717  141.6433  162.5537 C.ar    1  UNL1        0.1313
      7 N         141.4449  141.2965  163.0477 N.ar    1  UNL1       -0.2325
      8 N         139.5130  140.9531  161.3448 N.pl3   1  UNL1       -0.2922
      9 C         138.1108  141.0789  160.8271 C.3     1  UNL1        0.0933
     10 C         137.9895  140.2195  159.6037 C.3     1  UNL1        0.0383
     11 C         139.3168  139.5626  159.3653 C.3     1  UNL1        0.1128
     12 C         140.2583  140.0160  160.4413 C.3     1  UNL1        0.1072
     13 C         139.6449  138.6181  158.2471 C.1     1  UNL1        0.0739
     14 N         139.9730  137.6736  157.1290 N.1     1  UNL1       -0.1958
     15 C         139.0012  144.4077  165.1924 C.3     1  UNL1        0.4187
     16 F         138.1866  145.4447  165.9072 F       1  UNL1       -0.1659
     17 F         138.4873  144.9112  163.8761 F       1  UNL1       -0.1659
     18 F         139.5152  143.9041  166.5085 F       1  UNL1       -0.1659
     19 O         143.5444  140.6600  165.8738 O.3     1  UNL1       -0.3470
     20 C         142.4921  139.6214  166.1262 C.3     1  UNL1        0.1467
     21 C         140.9388  141.3953  171.3495 C.3     1  UNL1        0.0896
     22 N         141.0982  140.8882  169.9468 N.3     1  UNL1       -0.2715
     23 C         139.8944  140.4519  169.1657 C.3     1  UNL1        0.0725
     24 C         140.0538  139.9448  167.7630 C.3     1  UNL1        0.0238
     25 C         141.4172  139.8741  167.1415 C.3     1  UNL1        0.0489
     26 C         142.6210  140.3105  167.9227 C.3     1  UNL1        0.0238
     27 C         142.4616  140.8175  169.3253 C.3     1  UNL1        0.0725
     28 C         140.5866  139.3499  166.0077 C.ar    1  UNL1       -0.0202
     29 C         139.1964  139.8707  165.7931 C.ar    1  UNL1       -0.0019
     30 C         138.3658  139.3466  164.6594 C.ar    1  UNL1        0.0293
     31 C         138.9255  138.3017  163.7402 C.ar    1  UNL1        0.1401
     32 F         138.0949  137.7775  162.6065 F       1  UNL1       -0.2042
     33 C         140.3157  137.7808  163.9548 C.ar    1  UNL1        0.0293
     34 C         141.1463  138.3050  165.0886 C.ar    1  UNL1       -0.0019
@<TRIPOS>BOND
     1    21    22    1
     2    22    23    1
     3    23    24    1
     4    24    25    1
     5    25    20    1
     6    20    19    1
     7    19     1    1
     8     1     2    1
     9     2     3   ar
    10     3     4   ar
    11     4    15    1
    12    15    16    1
    13    15    17    1
    14    15    18    1
    15     4     5   ar
    16     5     6   ar
    17     6     8    1
    18     8     9    1
    19     9    10    1
    20    10    11    1
    21    11    13    1
    22    13    14    3
    23    11    12    1
    24     6     7   ar
    25    25    28    1
    26    28    29   ar
    27    29    30   ar
    28    30    31   ar
    29    31    32    1
    30    31    33   ar
    31    33    34   ar
    32    25    26    1
    33    26    27    1
    34    27    22    1
    35     7     2   ar
    36    34    28   ar
    37    12     8    1
@<TRIPOS>MOLECULE
*****
 34 37 0 0 0
SMALL
GASTEIGER

@<TRIPOS>ATOM
      1 C         137.8685  144.3017  163.0906 C.3     1  UNL1        0.1875
      2 C         138.2452  142.9719  163.6733 C.ar    1  UNL1        0.0901
      3 C         137.9536  141.7110  162.9149 C.ar    1  UNL1        0.0212
      4 C         138.3303  140.3812  163.4977 C.ar    1  UNL1        0.0754
      5 C         138.9986  140.3122  164.8388 C.ar    1  UNL1        0.0382
      6 C         139.2902  141.5731  165.5972 C.ar    1  UNL1        0.1313
      7 N         138.9135  142.9029  165.0145 N.ar    1  UNL1       -0.2325
      8 N         139.9585  141.5041  166.9383 N.pl3   1  UNL1       -0.2922
      9 C         139.9223  140.3390  167.8825 C.3     1  UNL1        0.0933
     10 C         140.7217  140.7027  169.0984 C.3     1  UNL1        0.0383
     11 C         141.2520  142.0926  168.9058 C.3     1  UNL1        0.1128
     12 C         140.7802  142.5878  167.5708 C.3     1  UNL1        0.1072
     13 C         142.1043  142.8537  169.8776 C.1     1  UNL1        0.0739
     14 N         142.9566  143.6148  170.8493 N.1     1  UNL1       -0.1958
     15 C         138.0387  139.1202  162.7393 C.3     1  UNL1        0.4187
     16 F         137.7472  137.8593  161.9810 F       1  UNL1       -0.1659
     17 F         138.5306  138.3081  163.9007 F       1  UNL1       -0.1659
     18 F         137.5470  139.9324  161.5781 F       1  UNL1       -0.1659
     19 O         138.7540  144.9505  162.0683 O.3     1  UNL1       -0.3470
     20 C         140.2441  144.9148  162.2359 C.3     1  UNL1        0.1467
     21 C         141.7371  145.0086  156.7038 C.3     1  UNL1        0.0896
     22 N         141.5289  144.8102  158.1760 N.3     1  UNL1       -0.2715
     23 C         142.3799  143.8307  158.9285 C.3     1  UNL1        0.0725
     24 C         142.1717  143.6323  160.4007 C.3     1  UNL1        0.0238
     25 C         141.1125  144.4134  161.1203 C.3     1  UNL1        0.0489
     26 C         140.2616  145.3929  160.3678 C.3     1  UNL1        0.0238
     27 C         140.4698  145.5913  158.8956 C.3     1  UNL1        0.0725
     28 C         141.6620  143.6079  162.2603 C.ar    1  UNL1       -0.0202
     29 C         141.6392  142.1094  162.1994 C.ar    1  UNL1       -0.0019
     30 C         142.1886  141.3039  163.3393 C.ar    1  UNL1        0.0293
     31 C         142.7607  141.9972  164.5401 C.ar    1  UNL1        0.1401
     32 F         143.3102  141.1917  165.6801 F       1  UNL1       -0.2042
     33 C         142.7835  143.4957  164.6011 C.ar    1  UNL1        0.0293
     34 C         142.2341  144.3012  163.4612 C.ar    1  UNL1       -0.0019
@<TRIPOS>BOND
     1    21    22    1
     2    22    23    1
     3    23    24    1
     4    24    25    1
     5    25    20    1
     6    20    19    1
     7    19     1    1
     8     1     2    1
     9     2     3   ar
    10     3     4   ar
    11     4    15    1
    12    15    16    1
    13    15    17    1
    14    15    18    1
    15     4     5   ar
    16     5     6   ar
    17     6     8    1
    18     8     9    1
    19     9    10    1
    20    10    11    1
    21    11    13    1
    22    13    14    3
    23    11    12    1
    24     6     7   ar
    25    25    28    1
    26    28    29   ar
    27    29    30   ar
    28    30    31   ar
    29    31    32    1
    30    31    33   ar
    31    33    34   ar
    32    25    26    1
    33    26    27    1
    34    27    22    1
    35     7     2   ar
    36    34    28   ar
    37    12     8    1
@<TRIPOS>MOLECULE
*****
 34 37 0 0 0
SMALL
GASTEIGER

@<TRIPOS>ATOM
      1 C         143.1070  142.3007  164.6583 C.3     1  UNL1        0.1875
      2 C         141.7039  142.4476  164.1488 C.ar    1  UNL1        0.0901
      3 C         140.7285  143.3224  164.8792 C.ar    1  UNL1        0.0212
      4 C         139.3253  143.4692  164.3697 C.ar    1  UNL1        0.0754
      5 C         138.8975  142.7413  163.1299 C.ar    1  UNL1        0.0382
      6 C         139.8729  141.8665  162.3995 C.ar    1  UNL1        0.1313
      7 N         141.2761  141.7196  162.9090 N.ar    1  UNL1       -0.2325
      8 N         139.4452  141.1386  161.1597 N.pl3   1  UNL1       -0.2922
      9 C         139.9514  139.8025  160.7028 C.3     1  UNL1        0.0933
     10 C         139.2552  139.4570  159.4199 C.3     1  UNL1        0.0383
     11 C         138.3187  140.5796  159.0839 C.3     1  UNL1        0.1128
     12 C         138.4361  141.6188  160.1592 C.3     1  UNL1        0.1072
     13 C         137.4222  140.6505  157.8833 C.1     1  UNL1        0.0739
     14 N         136.5257  140.7214  156.6828 N.1     1  UNL1       -0.1958
     15 C         138.3498  144.3440  165.1000 C.3     1  UNL1        0.4187
     16 F         137.3745  145.2187  165.8303 F       1  UNL1       -0.1659
     17 F         139.2623  144.3675  166.2904 F       1  UNL1       -0.1659
     18 F         137.4375  144.3204  163.9096 F       1  UNL1       -0.1659
     19 O         143.3912  141.4009  165.8244 O.3     1  UNL1       -0.3470
     20 C         142.5257  140.2016  166.0746 C.3     1  UNL1        0.1467
     21 C         140.8404  141.7653  171.3241 C.3     1  UNL1        0.0896
     22 N         141.0481  141.2605  169.9269 N.3     1  UNL1       -0.2715
     23 C         139.9352  140.5534  169.2117 C.3     1  UNL1        0.0725
     24 C         140.1429  140.0486  167.8146 C.3     1  UNL1        0.0238
     25 C         141.4635  140.2509  167.1326 C.3     1  UNL1        0.0489
     26 C         142.5763  140.9579  167.8478 C.3     1  UNL1        0.0238
     27 C         142.3686  141.4627  169.2450 C.3     1  UNL1        0.0725
     28 C         140.7194  139.5267  166.0500 C.ar    1  UNL1       -0.0202
     29 C         141.3719  138.3875  165.3244 C.ar    1  UNL1       -0.0019
     30 C         140.6280  137.6633  164.2418 C.ar    1  UNL1        0.0293
     31 C         139.2315  138.0784  163.8848 C.ar    1  UNL1        0.1401
     32 F         138.4875  137.3543  162.8021 F       1  UNL1       -0.2042
     33 C         138.5789  139.2176  164.6103 C.ar    1  UNL1        0.0293
     34 C         139.3229  139.9418  165.6929 C.ar    1  UNL1       -0.0019
@<TRIPOS>BOND
     1    21    22    1
     2    22    23    1
     3    23    24    1
     4    24    25    1
     5    25    20    1
     6    20    19    1
     7    19     1    1
     8     1     2    1
     9     2     3   ar
    10     3     4   ar
    11     4    15    1
    12    15    16    1
    13    15    17    1
    14    15    18    1
    15     4     5   ar
    16     5     6   ar
    17     6     8    1
    18     8     9    1
    19     9    10    1
    20    10    11    1
    21    11    13    1
    22    13    14    3
    23    11    12    1
    24     6     7   ar
    25    25    28    1
    26    28    29   ar
    27    29    30   ar
    28    30    31   ar
    29    31    32    1
    30    31    33   ar
    31    33    34   ar
    32    25    26    1
    33    26    27    1
    34    27    22    1
    35     7     2   ar
    36    34    28   ar
    37    12     8    1
@<TRIPOS>MOLECULE
*****
 34 37 0 0 0
SMALL
GASTEIGER

@<TRIPOS>ATOM
      1 C         140.2771  139.4653  164.4552 C.3     1  UNL1        0.1875
      2 C         140.2162  140.8896  163.9888 C.ar    1  UNL1        0.0901
      3 C         139.5060  141.9200  164.8159 C.ar    1  UNL1        0.0212
      4 C         139.4452  143.3442  164.3493 C.ar    1  UNL1        0.0754
      5 C         140.0945  143.7383  163.0559 C.ar    1  UNL1        0.0382
      6 C         140.8048  142.7079  162.2288 C.ar    1  UNL1        0.1313
      7 N         140.8656  141.2836  162.6953 N.ar    1  UNL1       -0.2325
      8 N         141.4541  143.1019  160.9354 N.pl3   1  UNL1       -0.2922
      9 C         141.1203  144.3119  160.1140 C.3     1  UNL1        0.0933
     10 C         142.0111  144.3131  158.9072 C.3     1  UNL1        0.0383
     11 C         142.8954  143.1038  158.9827 C.3     1  UNL1        0.1128
     12 C         142.5511  142.3553  160.2362 C.3     1  UNL1        0.1072
     13 C         143.9405  142.7118  157.9805 C.1     1  UNL1        0.0739
     14 N         144.9856  142.3198  156.9785 N.1     1  UNL1       -0.1958
     15 C         138.7349  144.3747  165.1764 C.3     1  UNL1        0.4187
     16 F         138.0247  145.4051  166.0033 F       1  UNL1       -0.1659
     17 F         137.8794  144.7314  163.9970 F       1  UNL1       -0.1659
     18 F         139.5905  144.0179  166.3556 F       1  UNL1       -0.1659
     19 O         141.2440  139.0692  165.5315 O.3     1  UNL1       -0.3470
     20 C         142.5338  139.8176  165.6934 C.3     1  UNL1        0.1467
     21 C         141.8979  141.2503  171.2056 C.3     1  UNL1        0.0896
     22 N         142.1597  141.1083  169.7355 N.3     1  UNL1       -0.2715
     23 C         142.7627  142.2471  168.9677 C.3     1  UNL1        0.0725
     24 C         143.0246  142.1051  167.4976 C.3     1  UNL1        0.0238
     25 C         142.6835  140.8244  166.7953 C.3     1  UNL1        0.0489
     26 C         142.0806  139.6856  167.5631 C.3     1  UNL1        0.0238
     27 C         141.8187  139.8276  169.0332 C.3     1  UNL1        0.0725
     28 C         143.2345  141.6136  165.6448 C.ar    1  UNL1       -0.0202
     29 C         144.0589  140.9313  164.5937 C.ar    1  UNL1       -0.0019
     30 C         144.6098  141.7204  163.4432 C.ar    1  UNL1        0.0293
     31 C         144.3364  143.1919  163.3438 C.ar    1  UNL1        0.1401
     32 F         144.8873  143.9811  162.1933 F       1  UNL1       -0.2042
     33 C         143.5120  143.8743  164.3949 C.ar    1  UNL1        0.0293
     34 C         142.9610  143.0851  165.5454 C.ar    1  UNL1       -0.0019
@<TRIPOS>BOND
     1    21    22    1
     2    22    23    1
     3    23    24    1
     4    24    25    1
     5    25    20    1
     6    20    19    1
     7    19     1    1
     8     1     2    1
     9     2     3   ar
    10     3     4   ar
    11     4    15    1
    12    15    16    1
    13    15    17    1
    14    15    18    1
    15     4     5   ar
    16     5     6   ar
    17     6     8    1
    18     8     9    1
    19     9    10    1
    20    10    11    1
    21    11    13    1
    22    13    14    3
    23    11    12    1
    24     6     7   ar
    25    25    28    1
    26    28    29   ar
    27    29    30   ar
    28    30    31   ar
    29    31    32    1
    30    31    33   ar
    31    33    34   ar
    32    25    26    1
    33    26    27    1
    34    27    22    1
    35     7     2   ar
    36    34    28   ar
    37    12     8    1
