@<TRIPOS>MOLECULE
*****
 50 54 0 0 0
SMALL
GASTEIGER

@<TRIPOS>ATOM
      1 C         140.6509  142.3387  158.9701 C.ar    1  UNL1        0.0005
      2 C         139.7069  142.3550  157.8045 C.ar    1  UNL1       -0.0002
      3 C         139.4671  143.6299  157.0514 C.ar    1  UNL1        0.0038
      4 C         140.1712  144.8885  157.4640 C.ar    1  UNL1        0.0712
      5 C         141.1151  144.8722  158.6296 C.ar    1  UNL1        0.0012
      6 C         141.3550  143.5972  159.3827 C.ar    1  UNL1       -0.0022
      7 C         141.7747  140.0023  159.1385 C.ar    1  UNL1        0.1386
      8 C         142.0144  138.7274  159.8916 C.ar    1  UNL1        0.0369
      9 C         141.3702  138.5140  161.2293 C.ar    1  UNL1        0.0031
     10 C         140.4862  139.5754  161.8139 C.ar    1  UNL1       -0.0001
     11 C         140.2464  140.8503  161.0609 C.ar    1  UNL1        0.0030
     12 C         140.8907  141.0637  159.7232 C.ar    1  UNL1        0.0337
     13 C         139.8420  139.3620  163.1516 C.ar    1  UNL1       -0.0039
     14 C         138.7812  140.3071  163.6325 C.ar    1  UNL1       -0.0003
     15 C         138.1370  140.0937  164.9702 C.ar    1  UNL1        0.0011
     16 C         138.5536  138.9351  165.8270 C.ar    1  UNL1        0.0137
     17 C         139.6144  137.9900  165.3461 C.ar    1  UNL1       -0.0031
     18 C         140.2586  138.2034  164.0084 C.ar    1  UNL1       -0.0218
     19 C         141.3195  137.2582  163.5275 C.3     1  UNL1        0.0310
     20 C         137.9094  138.7217  167.1647 C.2     1  UNL1        0.0729
     21 O         138.4445  139.4264  168.3759 O.co2   1  UNL1       -0.5446
     22 O         136.7299  137.8036  167.2912 O.co2   1  UNL1       -0.5446
     23 C         143.7897  140.8186  157.7162 C.3     1  UNL1        0.2525
     24 O         142.4189  140.2157  157.8008 O.3     1  UNL1       -0.4714
     25 C         139.9314  146.1634  156.7109 C.3     1  UNL1        0.4186
     26 F         139.6915  147.4383  155.9579 F       1  UNL1       -0.1659
     27 F         140.2781  145.4701  155.4268 F       1  UNL1       -0.1659
     28 F         139.5846  146.8567  157.9950 F       1  UNL1       -0.1659
     29 C         142.2989  143.5809  160.5483 C.3     1  UNL1        0.1235
     30 N         141.7626  143.4939  161.9465 N.am    1  UNL1       -0.2396
     31 C         140.6838  144.3559  162.5322 C.2     1  UNL1        0.4054
     32 O         139.9518  145.4562  161.8226 O.2     1  UNL1       -0.2262
     33 O         140.4654  143.9243  163.9522 O.3     1  UNL1       -0.4320
     34 C         141.4093  142.7956  164.2439 C.3     1  UNL1        0.2107
     35 C         142.2110  142.5296  163.0044 C.3     1  UNL1        0.1232
     36 C         143.2744  141.4831  162.8498 C.3     1  UNL1        0.0258
     37 C         141.5302  142.0618  165.5465 C.ar    1  UNL1        0.0189
     38 C         140.8755  142.6099  166.7798 C.ar    1  UNL1        0.0031
     39 C         140.9964  141.8761  168.0824 C.ar    1  UNL1        0.0712
     40 C         141.7721  140.5941  168.1518 C.ar    1  UNL1        0.0077
     41 C         142.4270  140.0460  166.9185 C.ar    1  UNL1        0.0712
     42 C         142.3060  140.7799  165.6160 C.ar    1  UNL1        0.0031
     43 C         140.3416  142.4242  169.3156 C.3     1  UNL1        0.4186
     44 F         139.6868  142.9723  170.5488 F       1  UNL1       -0.1659
     45 F         140.1372  143.7388  168.6227 F       1  UNL1       -0.1659
     46 F         140.5460  141.1095  170.0084 F       1  UNL1       -0.1659
     47 C         143.2027  138.7640  166.9880 C.3     1  UNL1        0.4186
     48 F         143.9784  137.4821  167.0574 F       1  UNL1       -0.1659
     49 F         143.5375  138.8877  165.5311 F       1  UNL1       -0.1659
     50 F         142.8679  138.6404  168.4449 F       1  UNL1       -0.1659
@<TRIPOS>UNITY_ATOM_ATTR
21 1
charge -1
@<TRIPOS>BOND
     1    23    24    1
     2    24     7    1
     3     7     8   ar
     4     8     9   ar
     5     9    10   ar
     6    10    13    1
     7    13    14   ar
     8    14    15   ar
     9    15    16   ar
    10    16    20    1
    11    20    21   ar
    12    20    22   ar
    13    16    17   ar
    14    17    18   ar
    15    18    19    1
    16    10    11   ar
    17    11    12   ar
    18    12     1    1
    19     1     2   ar
    20     2     3   ar
    21     3     4   ar
    22     4    25    1
    23    25    26    1
    24    25    27    1
    25    25    28    1
    26     4     5   ar
    27     5     6   ar
    28     6    29    1
    29    29    30    1
    30    30    31   am
    31    31    32    2
    32    31    33    1
    33    33    34    1
    34    34    37    1
    35    37    38   ar
    36    38    39   ar
    37    39    43    1
    38    43    44    1
    39    43    45    1
    40    43    46    1
    41    39    40   ar
    42    40    41   ar
    43    41    47    1
    44    47    48    1
    45    47    49    1
    46    47    50    1
    47    41    42   ar
    48    34    35    1
    49    35    36    1
    50    12     7   ar
    51     6     1   ar
    52    35    30    1
    53    18    13   ar
    54    42    37   ar
@<TRIPOS>MOLECULE
*****
 50 54 0 0 0
SMALL
GASTEIGER

@<TRIPOS>ATOM
      1 C         140.6128  142.3162  158.9798 C.ar    1  UNL1        0.0005
      2 C         139.6547  142.3244  157.8257 C.ar    1  UNL1       -0.0002
      3 C         139.4100  143.5926  157.0631 C.ar    1  UNL1        0.0038
      4 C         140.1234  144.8528  157.4546 C.ar    1  UNL1        0.0712
      5 C         141.0814  144.8446  158.6087 C.ar    1  UNL1        0.0012
      6 C         141.3262  143.5762  159.3713 C.ar    1  UNL1       -0.0022
      7 C         141.7430  139.9840  159.1643 C.ar    1  UNL1        0.1386
      8 C         141.9877  138.7158  159.9269 C.ar    1  UNL1        0.0369
      9 C         141.3469  138.5113  161.2676 C.ar    1  UNL1        0.0031
     10 C         140.4614  139.5751  161.8457 C.ar    1  UNL1       -0.0001
     11 C         140.2167  140.8433  161.0831 C.ar    1  UNL1        0.0030
     12 C         140.8575  141.0478  159.7424 C.ar    1  UNL1        0.0337
     13 C         139.8206  139.3706  163.1865 C.ar    1  UNL1       -0.0039
     14 C         138.7411  140.3023  163.6517 C.ar    1  UNL1       -0.0003
     15 C         138.1003  140.0978  164.9925 C.ar    1  UNL1        0.0011
     16 C         138.5390  138.9616  165.8679 C.ar    1  UNL1        0.0137
     17 C         139.6185  138.0299  165.4027 C.ar    1  UNL1       -0.0031
     18 C         140.2593  138.2343  164.0619 C.ar    1  UNL1       -0.0218
     19 C         141.3388  137.3025  163.5967 C.3     1  UNL1        0.0310
     20 C         137.8982  138.7571  167.2086 C.2     1  UNL1        0.0729
     21 O         138.4399  139.4655  168.4147 O.co2   1  UNL1       -0.5446
     22 O         136.7156  137.8442  167.3433 O.co2   1  UNL1       -0.5446
     23 C         143.7889  140.7061  157.7349 C.3     1  UNL1        0.2525
     24 O         142.3838  140.1885  157.8235 O.3     1  UNL1       -0.4714
     25 C         139.8786  146.1210  156.6920 C.3     1  UNL1        0.4186
     26 F         139.6339  147.3893  155.9294 F       1  UNL1       -0.1659
     27 F         139.5999  146.8406  157.9782 F       1  UNL1       -0.1659
     28 F         140.1574  145.4014  155.4058 F       1  UNL1       -0.1659
     29 C         142.2842  143.5680  160.5255 C.3     1  UNL1        0.1235
     30 N         141.7655  143.4799  161.9302 N.am    1  UNL1       -0.2396
     31 C         140.7049  144.3517  162.5346 C.2     1  UNL1        0.4054
     32 O         139.9769  145.4644  161.8406 O.2     1  UNL1       -0.2262
     33 O         140.5002  143.9152  163.9551 O.3     1  UNL1       -0.4320
     34 C         141.4343  142.7738  164.2285 C.3     1  UNL1        0.2107
     35 C         142.2163  142.5048  162.9770 C.3     1  UNL1        0.1232
     36 C         143.2649  141.4465  162.8029 C.3     1  UNL1        0.0258
     37 C         141.5637  142.0317  165.5255 C.ar    1  UNL1        0.0189
     38 C         142.3648  140.7650  165.5884 C.ar    1  UNL1        0.0031
     39 C         142.4941  140.0229  166.8854 C.ar    1  UNL1        0.0712
     40 C         141.8224  140.5474  168.1198 C.ar    1  UNL1        0.0077
     41 C         141.0213  141.8141  168.0571 C.ar    1  UNL1        0.0712
     42 C         140.8920  142.5561  166.7599 C.ar    1  UNL1        0.0031
     43 C         143.2952  138.7563  166.9481 C.3     1  UNL1        0.4186
     44 F         144.0963  137.4897  167.0109 F       1  UNL1       -0.1659
     45 F         143.6150  138.8863  165.4884 F       1  UNL1       -0.1659
     46 F         142.9754  138.6263  168.4079 F       1  UNL1       -0.1659
     47 C         140.3496  142.3385  169.2915 C.3     1  UNL1        0.4186
     48 F         139.6779  142.8630  170.5259 F       1  UNL1       -0.1659
     49 F         140.6572  141.0550  170.0042 F       1  UNL1       -0.1659
     50 F         140.0420  143.6220  168.5788 F       1  UNL1       -0.1659
@<TRIPOS>UNITY_ATOM_ATTR
21 1
charge -1
@<TRIPOS>BOND
     1    23    24    1
     2    24     7    1
     3     7     8   ar
     4     8     9   ar
     5     9    10   ar
     6    10    13    1
     7    13    14   ar
     8    14    15   ar
     9    15    16   ar
    10    16    20    1
    11    20    21   ar
    12    20    22   ar
    13    16    17   ar
    14    17    18   ar
    15    18    19    1
    16    10    11   ar
    17    11    12   ar
    18    12     1    1
    19     1     2   ar
    20     2     3   ar
    21     3     4   ar
    22     4    25    1
    23    25    26    1
    24    25    27    1
    25    25    28    1
    26     4     5   ar
    27     5     6   ar
    28     6    29    1
    29    29    30    1
    30    30    31   am
    31    31    32    2
    32    31    33    1
    33    33    34    1
    34    34    37    1
    35    37    38   ar
    36    38    39   ar
    37    39    43    1
    38    43    44    1
    39    43    45    1
    40    43    46    1
    41    39    40   ar
    42    40    41   ar
    43    41    47    1
    44    47    48    1
    45    47    49    1
    46    47    50    1
    47    41    42   ar
    48    34    35    1
    49    35    36    1
    50    12     7   ar
    51     6     1   ar
    52    35    30    1
    53    18    13   ar
    54    42    37   ar
@<TRIPOS>MOLECULE
*****
 50 54 0 0 0
SMALL
GASTEIGER

@<TRIPOS>ATOM
      1 C         141.9567  142.8021  159.2521 C.ar    1  UNL1        0.0005
      2 C         142.9376  143.6384  158.4851 C.ar    1  UNL1       -0.0002
      3 C         142.4497  144.7626  157.6202 C.ar    1  UNL1        0.0038
      4 C         140.9808  145.0505  157.5223 C.ar    1  UNL1        0.0712
      5 C         139.9999  144.2142  158.2894 C.ar    1  UNL1        0.0012
      6 C         140.4879  143.0899  159.1543 C.ar    1  UNL1       -0.0022
      7 C         142.8594  140.3779  159.4940 C.ar    1  UNL1        0.1386
      8 C         143.3473  139.2537  160.3589 C.ar    1  UNL1        0.0369
      9 C         143.4206  139.4294  161.8468 C.ar    1  UNL1        0.0031
     10 C         143.0058  140.7294  162.4698 C.ar    1  UNL1       -0.0001
     11 C         142.5179  141.8535  161.6049 C.ar    1  UNL1        0.0030
     12 C         142.4447  141.6778  160.1170 C.ar    1  UNL1        0.0337
     13 C         143.0790  140.9051  163.9576 C.ar    1  UNL1       -0.0039
     14 C         143.5547  142.2044  164.5369 C.ar    1  UNL1       -0.0003
     15 C         143.6279  142.3802  166.0247 C.ar    1  UNL1        0.0011
     16 C         143.2255  141.2566  166.9334 C.ar    1  UNL1        0.0137
     17 C         142.7498  139.9573  166.3541 C.ar    1  UNL1       -0.0031
     18 C         142.6766  139.7816  164.8663 C.ar    1  UNL1       -0.0218
     19 C         142.2009  138.4822  164.2871 C.3     1  UNL1        0.0310
     20 C         143.2987  141.4324  168.4212 C.2     1  UNL1        0.0729
     21 O         143.0914  140.2546  169.3267 O.co2   1  UNL1       -0.5446
     22 O         143.5792  142.7859  169.0037 O.co2   1  UNL1       -0.5446
     23 C         144.0179  140.3789  157.1686 C.3     1  UNL1        0.2525
     24 O         142.7862  140.2021  158.0062 O.3     1  UNL1       -0.4714
     25 C         140.4929  146.1748  156.6575 C.3     1  UNL1        0.4186
     26 F         140.0050  147.2990  155.7926 F       1  UNL1       -0.1659
     27 F         141.2964  145.6401  155.5092 F       1  UNL1       -0.1659
     28 F         139.6894  146.7094  157.8057 F       1  UNL1       -0.1659
     29 C         139.5069  142.2536  159.9213 C.3     1  UNL1        0.1235
     30 N         139.3626  142.4367  161.4031 N.am    1  UNL1       -0.2396
     31 C         139.1850  143.7441  162.1167 C.2     1  UNL1        0.4054
     32 O         139.1205  145.0979  161.4739 O.2     1  UNL1       -0.2262
     33 O         139.0832  143.4601  163.5861 O.3     1  UNL1       -0.4320
     34 C         139.1979  141.9771  163.7805 C.3     1  UNL1        0.2107
     35 C         139.3706  141.3447  162.4314 C.3     1  UNL1        0.1232
     36 C         139.5243  139.8778  162.1584 C.3     1  UNL1        0.0258
     37 C         139.1486  141.2536  165.0935 C.ar    1  UNL1        0.0189
     38 C         138.5893  139.8636  165.1635 C.ar    1  UNL1        0.0031
     39 C         138.5400  139.1401  166.4765 C.ar    1  UNL1        0.0712
     40 C         139.0500  139.8067  167.7197 C.ar    1  UNL1        0.0077
     41 C         139.6093  141.1968  167.6498 C.ar    1  UNL1        0.0712
     42 C         139.6586  141.9202  166.3367 C.ar    1  UNL1        0.0031
     43 C         137.9807  137.7501  166.5464 C.3     1  UNL1        0.4186
     44 F         137.4213  136.3600  166.6163 F       1  UNL1       -0.1659
     45 F         138.9213  137.3170  165.4612 F       1  UNL1       -0.1659
     46 F         137.0399  138.1831  167.6316 F       1  UNL1       -0.1659
     47 C         140.1194  141.8634  168.8931 C.3     1  UNL1        0.4186
     48 F         140.6294  142.5299  170.1363 F       1  UNL1       -0.1659
     49 F         139.8303  140.6188  169.6789 F       1  UNL1       -0.1659
     50 F         140.4084  143.1079  168.1072 F       1  UNL1       -0.1659
@<TRIPOS>UNITY_ATOM_ATTR
21 1
charge -1
@<TRIPOS>BOND
     1    23    24    1
     2    24     7    1
     3     7     8   ar
     4     8     9   ar
     5     9    10   ar
     6    10    13    1
     7    13    14   ar
     8    14    15   ar
     9    15    16   ar
    10    16    20    1
    11    20    21   ar
    12    20    22   ar
    13    16    17   ar
    14    17    18   ar
    15    18    19    1
    16    10    11   ar
    17    11    12   ar
    18    12     1    1
    19     1     2   ar
    20     2     3   ar
    21     3     4   ar
    22     4    25    1
    23    25    26    1
    24    25    27    1
    25    25    28    1
    26     4     5   ar
    27     5     6   ar
    28     6    29    1
    29    29    30    1
    30    30    31   am
    31    31    32    2
    32    31    33    1
    33    33    34    1
    34    34    37    1
    35    37    38   ar
    36    38    39   ar
    37    39    43    1
    38    43    44    1
    39    43    45    1
    40    43    46    1
    41    39    40   ar
    42    40    41   ar
    43    41    47    1
    44    47    48    1
    45    47    49    1
    46    47    50    1
    47    41    42   ar
    48    34    35    1
    49    35    36    1
    50    12     7   ar
    51     6     1   ar
    52    35    30    1
    53    18    13   ar
    54    42    37   ar
@<TRIPOS>MOLECULE
*****
 50 54 0 0 0
SMALL
GASTEIGER

@<TRIPOS>ATOM
      1 C         141.9469  142.8717  159.2006 C.ar    1  UNL1        0.0005
      2 C         142.9183  143.7157  158.4298 C.ar    1  UNL1       -0.0002
      3 C         142.4192  144.8430  157.5755 C.ar    1  UNL1        0.0038
      4 C         140.9485  145.1264  157.4919 C.ar    1  UNL1        0.0712
      5 C         139.9771  144.2824  158.2627 C.ar    1  UNL1        0.0012
      6 C         140.4763  143.1551  159.1170 C.ar    1  UNL1       -0.0022
      7 C         142.8782  140.4562  159.4195 C.ar    1  UNL1        0.1386
      8 C         143.3774  139.3289  160.2738 C.ar    1  UNL1        0.0369
      9 C         143.4446  139.4898  161.7637 C.ar    1  UNL1        0.0031
     10 C         143.0126  140.7780  162.3991 C.ar    1  UNL1       -0.0001
     11 C         142.5134  141.9053  161.5448 C.ar    1  UNL1        0.0030
     12 C         142.4462  141.7444  160.0550 C.ar    1  UNL1        0.0337
     13 C         143.0799  140.9389  163.8890 C.ar    1  UNL1       -0.0039
     14 C         143.5844  142.2206  164.4829 C.ar    1  UNL1       -0.0003
     15 C         143.6516  142.3815  165.9727 C.ar    1  UNL1        0.0011
     16 C         143.2143  141.2608  166.8686 C.ar    1  UNL1        0.0137
     17 C         142.7098  139.9791  166.2747 C.ar    1  UNL1       -0.0031
     18 C         142.6426  139.8182  164.7849 C.ar    1  UNL1       -0.0218
     19 C         142.1381  138.5364  164.1910 C.3     1  UNL1        0.0310
     20 C         143.2816  141.4217  168.3584 C.2     1  UNL1        0.0729
     21 O         143.1227  140.2259  169.2499 O.co2   1  UNL1       -0.5446
     22 O         143.5076  142.7784  168.9568 O.co2   1  UNL1       -0.5446
     23 C         144.0658  140.3621  157.1107 C.3     1  UNL1        0.2525
     24 O         142.8110  140.2952  157.9297 O.3     1  UNL1       -0.4714
     25 C         140.4493  146.2537  156.6376 C.3     1  UNL1        0.4186
     26 F         139.9501  147.3810  155.7832 F       1  UNL1       -0.1659
     27 F         141.2770  145.7518  155.4917 F       1  UNL1       -0.1659
     28 F         139.6217  146.7556  157.7834 F       1  UNL1       -0.1659
     29 C         139.5049  142.3111  159.8878 C.3     1  UNL1        0.1235
     30 N         139.3731  142.4852  161.3719 N.am    1  UNL1       -0.2396
     31 C         139.2198  143.7897  162.0963 C.2     1  UNL1        0.4054
     32 O         139.1714  145.1490  161.4640 O.2     1  UNL1       -0.2262
     33 O         139.1234  143.4961  163.5642 O.3     1  UNL1       -0.4320
     34 C         139.2172  142.0101  163.7468 C.3     1  UNL1        0.2107
     35 C         139.3715  141.3854  162.3919 C.3     1  UNL1        0.1232
     36 C         139.5014  139.9185  162.1070 C.3     1  UNL1        0.0258
     37 C         139.1657  141.2776  165.0547 C.ar    1  UNL1        0.0189
     38 C         139.6659  141.9386  166.3049 C.ar    1  UNL1        0.0031
     39 C         139.6144  141.2061  167.6127 C.ar    1  UNL1        0.0712
     40 C         139.0626  139.8125  167.6706 C.ar    1  UNL1        0.0077
     41 C         138.5623  139.1514  166.4205 C.ar    1  UNL1        0.0712
     42 C         138.6138  139.8840  165.1126 C.ar    1  UNL1        0.0031
     43 C         140.1146  141.8671  168.8628 C.3     1  UNL1        0.4186
     44 F         140.6149  142.5282  170.1129 F       1  UNL1       -0.1659
     45 F         140.3798  143.1258  168.0911 F       1  UNL1       -0.1659
     46 F         139.8495  140.6085  169.6346 F       1  UNL1       -0.1659
     47 C         138.0105  137.7578  166.4784 C.3     1  UNL1        0.4186
     48 F         137.4587  136.3642  166.5362 F       1  UNL1       -0.1659
     49 F         139.0070  137.3203  165.4461 F       1  UNL1       -0.1659
     50 F         137.0139  138.1952  167.5106 F       1  UNL1       -0.1659
@<TRIPOS>UNITY_ATOM_ATTR
21 1
charge -1
@<TRIPOS>BOND
     1    23    24    1
     2    24     7    1
     3     7     8   ar
     4     8     9   ar
     5     9    10   ar
     6    10    13    1
     7    13    14   ar
     8    14    15   ar
     9    15    16   ar
    10    16    20    1
    11    20    21   ar
    12    20    22   ar
    13    16    17   ar
    14    17    18   ar
    15    18    19    1
    16    10    11   ar
    17    11    12   ar
    18    12     1    1
    19     1     2   ar
    20     2     3   ar
    21     3     4   ar
    22     4    25    1
    23    25    26    1
    24    25    27    1
    25    25    28    1
    26     4     5   ar
    27     5     6   ar
    28     6    29    1
    29    29    30    1
    30    30    31   am
    31    31    32    2
    32    31    33    1
    33    33    34    1
    34    34    37    1
    35    37    38   ar
    36    38    39   ar
    37    39    43    1
    38    43    44    1
    39    43    45    1
    40    43    46    1
    41    39    40   ar
    42    40    41   ar
    43    41    47    1
    44    47    48    1
    45    47    49    1
    46    47    50    1
    47    41    42   ar
    48    34    35    1
    49    35    36    1
    50    12     7   ar
    51     6     1   ar
    52    35    30    1
    53    18    13   ar
    54    42    37   ar
@<TRIPOS>MOLECULE
*****
 50 54 0 0 0
SMALL
GASTEIGER

@<TRIPOS>ATOM
      1 C         141.5815  142.2489  158.6153 C.ar    1  UNL1        0.0005
      2 C         142.5296  143.3978  158.4389 C.ar    1  UNL1       -0.0002
      3 C         142.0147  144.7326  157.9883 C.ar    1  UNL1        0.0038
      4 C         140.5517  144.9186  157.7140 C.ar    1  UNL1        0.0712
      5 C         139.6037  143.7696  157.8904 C.ar    1  UNL1        0.0012
      6 C         140.1186  142.4347  158.3411 C.ar    1  UNL1       -0.0022
      7 C         142.3942  139.8452  158.0565 C.ar    1  UNL1        0.1386
      8 C         142.9091  138.5104  158.5072 C.ar    1  UNL1        0.0369
      9 C         143.1262  138.2444  159.9674 C.ar    1  UNL1        0.0031
     10 C         142.8285  139.3131  160.9768 C.ar    1  UNL1       -0.0001
     11 C         142.3136  140.6479  160.5262 C.ar    1  UNL1        0.0030
     12 C         142.0965  140.9140  159.0660 C.ar    1  UNL1        0.0337
     13 C         143.0456  139.0471  162.4370 C.ar    1  UNL1       -0.0039
     14 C         142.2325  137.9992  163.1375 C.ar    1  UNL1       -0.0003
     15 C         142.4496  137.7332  164.5976 C.ar    1  UNL1        0.0011
     16 C         143.4799  138.5150  165.3573 C.ar    1  UNL1        0.0137
     17 C         144.2931  139.5628  164.6569 C.ar    1  UNL1       -0.0031
     18 C         144.0759  139.8289  163.1967 C.ar    1  UNL1       -0.0218
     19 C         144.8892  140.8768  162.4962 C.3     1  UNL1        0.0310
     20 C         143.6971  138.2489  166.8175 C.2     1  UNL1        0.0729
     21 O         144.5711  137.1094  167.2503 O.co2   1  UNL1       -0.5446
     22 O         143.0402  139.1224  167.8448 O.co2   1  UNL1       -0.5446
     23 C         141.4402  139.1130  155.7536 C.3     1  UNL1        0.2525
     24 O         142.1771  140.1113  156.5964 O.3     1  UNL1       -0.4714
     25 C         140.0369  146.2534  157.2634 C.3     1  UNL1        0.4186
     26 F         139.5220  147.5882  156.8128 F       1  UNL1       -0.1659
     27 F         140.4576  145.9411  155.8579 F       1  UNL1       -0.1659
     28 F         139.6162  146.5656  158.6689 F       1  UNL1       -0.1659
     29 C         139.1705  141.2858  158.5175 C.3     1  UNL1        0.1235
     30 N         139.2464  140.4331  159.7493 N.am    1  UNL1       -0.2396
     31 C         139.3067  138.9347  159.7819 C.2     1  UNL1        0.4054
     32 O         139.3016  138.0258  158.5885 O.2     1  UNL1       -0.2262
     33 O         139.3729  138.5046  161.2174 O.3     1  UNL1       -0.4320
     34 C         139.3536  139.7373  162.0720 C.3     1  UNL1        0.2107
     35 C         139.2754  140.9292  161.1646 C.3     1  UNL1        0.1232
     36 C         139.2336  142.3650  161.5966 C.3     1  UNL1        0.0258
     37 C         139.4036  139.7720  163.5706 C.ar    1  UNL1        0.0189
     38 C         140.2872  140.7629  164.2689 C.ar    1  UNL1        0.0031
     39 C         140.3372  140.7976  165.7676 C.ar    1  UNL1        0.0712
     40 C         139.5037  139.8414  166.5682 C.ar    1  UNL1        0.0077
     41 C         138.6200  138.8505  165.8700 C.ar    1  UNL1        0.0712
     42 C         138.5701  138.8159  164.3712 C.ar    1  UNL1        0.0031
     43 C         141.2208  141.7884  166.4658 C.3     1  UNL1        0.4186
     44 F         142.1044  142.7793  167.1639 F       1  UNL1       -0.1659
     45 F         140.5057  141.5170  167.7561 F       1  UNL1       -0.1659
     46 F         141.9360  142.0599  165.1754 F       1  UNL1       -0.1659
     47 C         137.7865  137.8944  166.6706 C.3     1  UNL1        0.4186
     48 F         136.9529  136.9382  167.4712 F       1  UNL1       -0.1659
     49 F         137.4069  139.0062  167.6032 F       1  UNL1       -0.1659
     50 F         138.1661  136.7825  165.7381 F       1  UNL1       -0.1659
@<TRIPOS>UNITY_ATOM_ATTR
21 1
charge -1
@<TRIPOS>BOND
     1    23    24    1
     2    24     7    1
     3     7     8   ar
     4     8     9   ar
     5     9    10   ar
     6    10    13    1
     7    13    14   ar
     8    14    15   ar
     9    15    16   ar
    10    16    20    1
    11    20    21   ar
    12    20    22   ar
    13    16    17   ar
    14    17    18   ar
    15    18    19    1
    16    10    11   ar
    17    11    12   ar
    18    12     1    1
    19     1     2   ar
    20     2     3   ar
    21     3     4   ar
    22     4    25    1
    23    25    26    1
    24    25    27    1
    25    25    28    1
    26     4     5   ar
    27     5     6   ar
    28     6    29    1
    29    29    30    1
    30    30    31   am
    31    31    32    2
    32    31    33    1
    33    33    34    1
    34    34    37    1
    35    37    38   ar
    36    38    39   ar
    37    39    43    1
    38    43    44    1
    39    43    45    1
    40    43    46    1
    41    39    40   ar
    42    40    41   ar
    43    41    47    1
    44    47    48    1
    45    47    49    1
    46    47    50    1
    47    41    42   ar
    48    34    35    1
    49    35    36    1
    50    12     7   ar
    51     6     1   ar
    52    35    30    1
    53    18    13   ar
    54    42    37   ar
@<TRIPOS>MOLECULE
*****
 50 54 0 0 0
SMALL
GASTEIGER

@<TRIPOS>ATOM
      1 C         142.0506  141.4597  158.8978 C.ar    1  UNL1        0.0005
      2 C         142.7530  140.3490  158.1748 C.ar    1  UNL1       -0.0002
      3 C         144.1493  140.5508  157.6653 C.ar    1  UNL1        0.0038
      4 C         144.8432  141.8635  157.8788 C.ar    1  UNL1        0.0712
      5 C         144.1407  142.9742  158.6018 C.ar    1  UNL1        0.0012
      6 C         142.7444  142.7724  159.1114 C.ar    1  UNL1       -0.0022
      7 C         139.4826  141.5170  158.5073 C.ar    1  UNL1        0.1386
      8 C         138.0864  141.3151  159.0169 C.ar    1  UNL1        0.0369
      9 C         137.8617  140.8541  160.4265 C.ar    1  UNL1        0.0031
     10 C         139.0333  140.5949  161.3265 C.ar    1  UNL1       -0.0001
     11 C         140.4296  140.7968  160.8170 C.ar    1  UNL1        0.0030
     12 C         140.6542  141.2579  159.4074 C.ar    1  UNL1        0.0337
     13 C         138.8087  140.1338  162.7361 C.ar    1  UNL1       -0.0039
     14 C         138.2363  141.0776  163.7517 C.ar    1  UNL1       -0.0003
     15 C         138.0117  140.6165  165.1613 C.ar    1  UNL1        0.0011
     16 C         138.3594  139.2116  165.5553 C.ar    1  UNL1        0.0137
     17 C         138.9318  138.2678  164.5397 C.ar    1  UNL1       -0.0031
     18 C         139.1564  138.7289  163.1301 C.ar    1  UNL1       -0.0218
     19 C         139.7289  137.7850  162.1144 C.3     1  UNL1        0.0310
     20 C         138.1348  138.7506  166.9649 C.2     1  UNL1        0.0729
     21 O         138.8839  139.3952  168.0932 O.co2   1  UNL1       -0.5446
     22 O         137.1610  137.6448  167.2461 O.co2   1  UNL1       -0.5446
     23 C         139.6563  143.4409  156.7700 C.3     1  UNL1        0.2525
     24 O         139.7073  141.9781  157.0977 O.3     1  UNL1       -0.4714
     25 C         146.2394  142.0653  157.3693 C.3     1  UNL1        0.4186
     26 F         147.6357  142.2672  156.8597 F       1  UNL1       -0.1659
     27 F         146.4753  143.1028  158.4265 F       1  UNL1       -0.1659
     28 F         146.0036  141.0278  156.3120 F       1  UNL1       -0.1659
     29 C         142.0420  143.8831  159.8344 C.3     1  UNL1        0.1235
     30 N         141.4874  143.6507  161.2087 N.am    1  UNL1       -0.2396
     31 C         140.1749  144.1589  161.7272 C.2     1  UNL1        0.4054
     32 O         139.1865  144.9888  160.9628 O.2     1  UNL1       -0.2262
     33 O         140.0243  143.6916  163.1447 O.3     1  UNL1       -0.4320
     34 C         141.2438  142.8945  163.5020 C.3     1  UNL1        0.2107
     35 C         142.1480  142.8692  162.3054 C.3     1  UNL1        0.1232
     36 C         143.4791  142.1831  162.2205 C.3     1  UNL1        0.0258
     37 C         141.5119  142.2380  164.8237 C.ar    1  UNL1        0.0189
     38 C         141.0735  142.9036  166.0945 C.ar    1  UNL1        0.0031
     39 C         141.3416  142.2471  167.4162 C.ar    1  UNL1        0.0712
     40 C         142.0482  140.9249  167.4672 C.ar    1  UNL1        0.0077
     41 C         142.4866  140.2592  166.1965 C.ar    1  UNL1        0.0712
     42 C         142.2184  140.9158  164.8748 C.ar    1  UNL1        0.0031
     43 C         140.9032  142.9127  168.6869 C.3     1  UNL1        0.4186
     44 F         140.4648  143.5784  169.9576 F       1  UNL1       -0.1659
     45 F         139.9255  143.7464  167.9128 F       1  UNL1       -0.1659
     46 F         141.8810  142.0790  169.4609 F       1  UNL1       -0.1659
     47 C         143.1932  138.9370  166.2476 C.3     1  UNL1        0.4186
     48 F         143.8997  137.6149  166.2986 F       1  UNL1       -0.1659
     49 F         143.5174  139.0539  164.7877 F       1  UNL1       -0.1659
     50 F         142.8689  138.8202  167.7074 F       1  UNL1       -0.1659
@<TRIPOS>UNITY_ATOM_ATTR
21 1
charge -1
@<TRIPOS>BOND
     1    23    24    1
     2    24     7    1
     3     7     8   ar
     4     8     9   ar
     5     9    10   ar
     6    10    13    1
     7    13    14   ar
     8    14    15   ar
     9    15    16   ar
    10    16    20    1
    11    20    21   ar
    12    20    22   ar
    13    16    17   ar
    14    17    18   ar
    15    18    19    1
    16    10    11   ar
    17    11    12   ar
    18    12     1    1
    19     1     2   ar
    20     2     3   ar
    21     3     4   ar
    22     4    25    1
    23    25    26    1
    24    25    27    1
    25    25    28    1
    26     4     5   ar
    27     5     6   ar
    28     6    29    1
    29    29    30    1
    30    30    31   am
    31    31    32    2
    32    31    33    1
    33    33    34    1
    34    34    37    1
    35    37    38   ar
    36    38    39   ar
    37    39    43    1
    38    43    44    1
    39    43    45    1
    40    43    46    1
    41    39    40   ar
    42    40    41   ar
    43    41    47    1
    44    47    48    1
    45    47    49    1
    46    47    50    1
    47    41    42   ar
    48    34    35    1
    49    35    36    1
    50    12     7   ar
    51     6     1   ar
    52    35    30    1
    53    18    13   ar
    54    42    37   ar
@<TRIPOS>MOLECULE
*****
 50 54 0 0 0
SMALL
GASTEIGER

@<TRIPOS>ATOM
      1 C         141.2322  141.9883  158.4166 C.ar    1  UNL1        0.0005
      2 C         142.1755  142.6801  157.4777 C.ar    1  UNL1       -0.0002
      3 C         141.8308  144.0333  156.9301 C.ar    1  UNL1        0.0038
      4 C         140.5426  144.6948  157.3214 C.ar    1  UNL1        0.0712
      5 C         139.5992  144.0031  158.2603 C.ar    1  UNL1        0.0012
      6 C         139.9441  142.6498  158.8079 C.ar    1  UNL1       -0.0022
      7 C         141.5938  139.4408  158.0568 C.ar    1  UNL1        0.1386
      8 C         141.9386  138.0876  158.6044 C.ar    1  UNL1        0.0369
      9 C         142.2666  137.9287  160.0595 C.ar    1  UNL1        0.0031
     10 C         142.2498  139.1229  160.9669 C.ar    1  UNL1       -0.0001
     11 C         141.9050  140.4761  160.4193 C.ar    1  UNL1        0.0030
     12 C         141.5770  140.6350  158.9642 C.ar    1  UNL1        0.0337
     13 C         142.5778  138.9639  162.4219 C.ar    1  UNL1       -0.0039
     14 C         141.6970  138.1278  163.3023 C.ar    1  UNL1       -0.0003
     15 C         142.0250  137.9688  164.7573 C.ar    1  UNL1        0.0011
     16 C         143.2337  138.6460  165.3320 C.ar    1  UNL1        0.0137
     17 C         144.1145  139.4822  164.4517 C.ar    1  UNL1       -0.0031
     18 C         143.7865  139.6412  162.9966 C.ar    1  UNL1       -0.0218
     19 C         144.6673  140.4774  162.1163 C.3     1  UNL1        0.0310
     20 C         143.5617  138.4871  166.7871 C.2     1  UNL1        0.0729
     21 O         142.9815  139.4349  167.7946 O.co2   1  UNL1       -0.5446
     22 O         144.4699  137.3803  167.2346 O.co2   1  UNL1       -0.5446
     23 C         141.6598  138.5333  155.6233 C.3     1  UNL1        0.2525
     24 O         141.2659  139.5998  156.6017 O.3     1  UNL1       -0.4714
     25 C         140.1978  146.0480  156.7738 C.3     1  UNL1        0.4186
     26 F         139.8530  147.4012  156.2262 F       1  UNL1       -0.1659
     27 F         139.8026  146.5032  158.1473 F       1  UNL1       -0.1659
     28 F         140.5930  145.5929  155.4003 F       1  UNL1       -0.1659
     29 C         139.0007  141.9580  159.7468 C.3     1  UNL1        0.1235
     30 N         139.1117  142.1869  161.2252 N.am    1  UNL1       -0.2396
     31 C         139.3010  143.5130  161.9002 C.2     1  UNL1        0.4054
     32 O         139.4125  144.8430  161.2155 O.2     1  UNL1       -0.2262
     33 O         139.3591  143.2756  163.3802 O.3     1  UNL1       -0.4320
     34 C         139.2058  141.8028  163.6198 C.3     1  UNL1        0.2107
     35 C         139.0529  141.1300  162.2879 C.3     1  UNL1        0.1232
     36 C         138.8727  139.6586  162.0589 C.3     1  UNL1        0.0258
     37 C         139.2054  141.1223  164.9565 C.ar    1  UNL1        0.0189
     38 C         139.8466  141.7887  166.1375 C.ar    1  UNL1        0.0031
     39 C         139.8462  141.1082  167.4742 C.ar    1  UNL1        0.0712
     40 C         139.2047  139.7613  167.6300 C.ar    1  UNL1        0.0077
     41 C         138.5635  139.0949  166.4490 C.ar    1  UNL1        0.0712
     42 C         138.5639  139.7754  165.1122 C.ar    1  UNL1        0.0031
     43 C         140.4874  141.7746  168.6552 C.3     1  UNL1        0.4186
     44 F         141.1286  142.4410  169.8362 F       1  UNL1       -0.1659
     45 F         140.4639  140.4740  169.4019 F       1  UNL1       -0.1659
     46 F         140.5109  143.0754  167.9085 F       1  UNL1       -0.1659
     47 C         137.9220  137.7479  166.6047 C.3     1  UNL1        0.4186
     48 F         137.2805  136.4010  166.7605 F       1  UNL1       -0.1659
     49 F         138.7914  137.2071  165.5085 F       1  UNL1       -0.1659
     50 F         137.0526  138.2888  167.7009 F       1  UNL1       -0.1659
@<TRIPOS>UNITY_ATOM_ATTR
21 1
charge -1
@<TRIPOS>BOND
     1    23    24    1
     2    24     7    1
     3     7     8   ar
     4     8     9   ar
     5     9    10   ar
     6    10    13    1
     7    13    14   ar
     8    14    15   ar
     9    15    16   ar
    10    16    20    1
    11    20    21   ar
    12    20    22   ar
    13    16    17   ar
    14    17    18   ar
    15    18    19    1
    16    10    11   ar
    17    11    12   ar
    18    12     1    1
    19     1     2   ar
    20     2     3   ar
    21     3     4   ar
    22     4    25    1
    23    25    26    1
    24    25    27    1
    25    25    28    1
    26     4     5   ar
    27     5     6   ar
    28     6    29    1
    29    29    30    1
    30    30    31   am
    31    31    32    2
    32    31    33    1
    33    33    34    1
    34    34    37    1
    35    37    38   ar
    36    38    39   ar
    37    39    43    1
    38    43    44    1
    39    43    45    1
    40    43    46    1
    41    39    40   ar
    42    40    41   ar
    43    41    47    1
    44    47    48    1
    45    47    49    1
    46    47    50    1
    47    41    42   ar
    48    34    35    1
    49    35    36    1
    50    12     7   ar
    51     6     1   ar
    52    35    30    1
    53    18    13   ar
    54    42    37   ar
@<TRIPOS>MOLECULE
*****
 50 54 0 0 0
SMALL
GASTEIGER

@<TRIPOS>ATOM
      1 C         141.2963  140.4815  157.7965 C.ar    1  UNL1        0.0005
      2 C         142.1277  141.1483  156.7410 C.ar    1  UNL1       -0.0002
      3 C         141.4636  141.8114  155.5709 C.ar    1  UNL1        0.0038
      4 C         139.9679  141.8077  155.4563 C.ar    1  UNL1        0.0712
      5 C         139.1365  141.1409  156.5118 C.ar    1  UNL1        0.0012
      6 C         139.8007  140.4778  157.6819 C.ar    1  UNL1       -0.0022
      7 C         142.2785  138.3533  158.9174 C.ar    1  UNL1        0.1386
      8 C         142.9427  137.6903  160.0875 C.ar    1  UNL1        0.0369
      9 C         143.2889  138.4923  161.3069 C.ar    1  UNL1        0.0031
     10 C         142.9710  139.9574  161.3561 C.ar    1  UNL1       -0.0001
     11 C         142.3068  140.6204  160.1860 C.ar    1  UNL1        0.0030
     12 C         141.9605  139.8184  158.9667 C.ar    1  UNL1        0.0337
     13 C         143.3172  140.7594  162.5755 C.ar    1  UNL1       -0.0039
     14 C         144.0556  142.0574  162.4347 C.ar    1  UNL1       -0.0003
     15 C         144.4018  142.8594  163.6541 C.ar    1  UNL1        0.0011
     16 C         144.0097  142.3634  165.0143 C.ar    1  UNL1        0.0137
     17 C         143.2713  141.0654  165.1551 C.ar    1  UNL1       -0.0031
     18 C         142.9251  140.2634  163.9357 C.ar    1  UNL1       -0.0218
     19 C         142.1867  138.9653  164.0766 C.3     1  UNL1        0.0310
     20 C         144.3559  143.1654  166.2337 C.2     1  UNL1        0.0729
     21 O         143.7548  142.8096  167.5610 O.co2   1  UNL1       -0.5446
     22 O         145.3033  144.3233  166.1257 O.co2   1  UNL1       -0.5446
     23 C         142.9696  137.3047  156.6430 C.3     1  UNL1        0.2525
     24 O         141.9322  137.5513  157.6980 O.3     1  UNL1       -0.4714
     25 C         139.3038  142.4708  154.2862 C.3     1  UNL1        0.4186
     26 F         138.6397  143.1339  153.1161 F       1  UNL1       -0.1659
     27 F         137.9936  142.4465  155.0161 F       1  UNL1       -0.1659
     28 F         140.6140  142.4951  153.5563 F       1  UNL1       -0.1659
     29 C         138.9693  139.8110  158.7374 C.3     1  UNL1        0.1235
     30 N         138.8298  140.4411  160.0915 N.am    1  UNL1       -0.2396
     31 C         138.4542  141.8672  160.3657 C.2     1  UNL1        0.4054
     32 O         138.1520  142.9135  159.3342 O.2     1  UNL1       -0.2262
     33 O         138.4337  142.0634  161.8528 O.3     1  UNL1       -0.4320
     34 C         138.7967  140.7584  162.4975 C.3     1  UNL1        0.2107
     35 C         139.0415  139.7559  161.4089 C.3     1  UNL1        0.1232
     36 C         139.4298  138.3202  161.6036 C.3     1  UNL1        0.0258
     37 C         138.8972  140.5013  163.9718 C.ar    1  UNL1        0.0189
     38 C         138.3400  139.2353  164.5521 C.ar    1  UNL1        0.0031
     39 C         138.4405  138.9781  166.0264 C.ar    1  UNL1        0.0712
     40 C         139.0982  139.9870  166.9205 C.ar    1  UNL1        0.0077
     41 C         139.6554  141.2531  166.3403 C.ar    1  UNL1        0.0712
     42 C         139.5549  141.5102  164.8659 C.ar    1  UNL1        0.0031
     43 C         137.8833  137.7121  166.6066 C.3     1  UNL1        0.4186
     44 F         137.3261  136.4461  167.1868 F       1  UNL1       -0.1659
     45 F         138.5261  136.9239  165.5041 F       1  UNL1       -0.1659
     46 F         137.2404  138.5003  167.7091 F       1  UNL1       -0.1659
     47 C         140.3131  142.2620  167.2345 C.3     1  UNL1        0.4186
     48 F         140.9708  143.2709  168.1287 F       1  UNL1       -0.1659
     49 F         140.7040  143.0715  166.0337 F       1  UNL1       -0.1659
     50 F         139.9223  141.4525  168.4353 F       1  UNL1       -0.1659
@<TRIPOS>UNITY_ATOM_ATTR
21 1
charge -1
@<TRIPOS>BOND
     1    23    24    1
     2    24     7    1
     3     7     8   ar
     4     8     9   ar
     5     9    10   ar
     6    10    13    1
     7    13    14   ar
     8    14    15   ar
     9    15    16   ar
    10    16    20    1
    11    20    21   ar
    12    20    22   ar
    13    16    17   ar
    14    17    18   ar
    15    18    19    1
    16    10    11   ar
    17    11    12   ar
    18    12     1    1
    19     1     2   ar
    20     2     3   ar
    21     3     4   ar
    22     4    25    1
    23    25    26    1
    24    25    27    1
    25    25    28    1
    26     4     5   ar
    27     5     6   ar
    28     6    29    1
    29    29    30    1
    30    30    31   am
    31    31    32    2
    32    31    33    1
    33    33    34    1
    34    34    37    1
    35    37    38   ar
    36    38    39   ar
    37    39    43    1
    38    43    44    1
    39    43    45    1
    40    43    46    1
    41    39    40   ar
    42    40    41   ar
    43    41    47    1
    44    47    48    1
    45    47    49    1
    46    47    50    1
    47    41    42   ar
    48    34    35    1
    49    35    36    1
    50    12     7   ar
    51     6     1   ar
    52    35    30    1
    53    18    13   ar
    54    42    37   ar
@<TRIPOS>MOLECULE
*****
 50 54 0 0 0
SMALL
GASTEIGER

@<TRIPOS>ATOM
      1 C         141.2260  141.9501  158.3484 C.ar    1  UNL1        0.0005
      2 C         142.1753  142.6269  157.4046 C.ar    1  UNL1       -0.0002
      3 C         141.8375  143.9746  156.8393 C.ar    1  UNL1        0.0038
      4 C         140.5504  144.6455  157.2178 C.ar    1  UNL1        0.0712
      5 C         139.6011  143.9688  158.1616 C.ar    1  UNL1        0.0012
      6 C         139.9389  142.6210  158.7269 C.ar    1  UNL1       -0.0022
      7 C         141.5710  139.3957  158.0229 C.ar    1  UNL1        0.1386
      8 C         141.9088  138.0481  158.5882 C.ar    1  UNL1        0.0369
      9 C         142.2395  137.9071  160.0445 C.ar    1  UNL1        0.0031
     10 C         142.2323  139.1138  160.9354 C.ar    1  UNL1       -0.0001
     11 C         141.8945  140.4614  160.3701 C.ar    1  UNL1        0.0030
     12 C         141.5638  140.6024  158.9138 C.ar    1  UNL1        0.0337
     13 C         142.5630  138.9728  162.3917 C.ar    1  UNL1       -0.0039
     14 C         141.6958  138.1305  163.2796 C.ar    1  UNL1       -0.0003
     15 C         142.0265  137.9896  164.7359 C.ar    1  UNL1        0.0011
     16 C         143.2244  138.6909  165.3043 C.ar    1  UNL1        0.0137
     17 C         144.0916  139.5332  164.4164 C.ar    1  UNL1       -0.0031
     18 C         143.7609  139.6742  162.9601 C.ar    1  UNL1       -0.0218
     19 C         144.6282  140.5166  162.0722 C.3     1  UNL1        0.0310
     20 C         143.5551  138.5500  166.7606 C.2     1  UNL1        0.0729
     21 O         142.9812  139.5135  167.7567 O.co2   1  UNL1       -0.5446
     22 O         144.4596  137.4455  167.2208 O.co2   1  UNL1       -0.5446
     23 C         142.3292  139.4511  155.5385 C.3     1  UNL1        0.2525
     24 O         141.2403  139.5367  156.5666 O.3     1  UNL1       -0.4714
     25 C         140.2126  145.9932  156.6524 C.3     1  UNL1        0.4186
     26 F         139.8749  147.3409  156.0871 F       1  UNL1       -0.1659
     27 F         140.5767  145.5088  155.2803 F       1  UNL1       -0.1659
     28 F         139.8486  146.4776  158.0246 F       1  UNL1       -0.1659
     29 C         138.9896  141.9442  159.6707 C.3     1  UNL1        0.1235
     30 N         139.1022  142.1833  161.1473 N.am    1  UNL1       -0.2396
     31 C         139.2845  143.5148  161.8135 C.2     1  UNL1        0.4054
     32 O         139.3863  144.8410  161.1201 O.2     1  UNL1       -0.2262
     33 O         139.3472  143.2872  163.2949 O.3     1  UNL1       -0.4320
     34 C         139.2037  141.8150  163.5441 C.3     1  UNL1        0.2107
     35 C         139.0522  141.1328  162.2169 C.3     1  UNL1        0.1232
     36 C         138.8809  139.6588  161.9976 C.3     1  UNL1        0.0258
     37 C         139.2104  141.1431  164.8851 C.ar    1  UNL1        0.0189
     38 C         138.5812  139.7914  165.0500 C.ar    1  UNL1        0.0031
     39 C         138.5879  139.1195  166.3910 C.ar    1  UNL1        0.0712
     40 C         139.2237  139.7992  167.5673 C.ar    1  UNL1        0.0077
     41 C         139.8529  141.1510  167.4025 C.ar    1  UNL1        0.0712
     42 C         139.8462  141.8228  166.0614 C.ar    1  UNL1        0.0031
     43 C         137.9588  137.7678  166.5557 C.3     1  UNL1        0.4186
     44 F         137.3297  136.4162  166.7205 F       1  UNL1       -0.1659
     45 F         137.1088  138.2995  167.6714 F       1  UNL1       -0.1659
     46 F         138.8089  137.2361  165.4400 F       1  UNL1       -0.1659
     47 C         140.4887  141.8307  168.5788 C.3     1  UNL1        0.4186
     48 F         141.1245  142.5104  169.7551 F       1  UNL1       -0.1659
     49 F         141.5329  142.4171  167.6756 F       1  UNL1       -0.1659
     50 F         139.4446  141.2443  169.4821 F       1  UNL1       -0.1659
@<TRIPOS>UNITY_ATOM_ATTR
21 1
charge -1
@<TRIPOS>BOND
     1    23    24    1
     2    24     7    1
     3     7     8   ar
     4     8     9   ar
     5     9    10   ar
     6    10    13    1
     7    13    14   ar
     8    14    15   ar
     9    15    16   ar
    10    16    20    1
    11    20    21   ar
    12    20    22   ar
    13    16    17   ar
    14    17    18   ar
    15    18    19    1
    16    10    11   ar
    17    11    12   ar
    18    12     1    1
    19     1     2   ar
    20     2     3   ar
    21     3     4   ar
    22     4    25    1
    23    25    26    1
    24    25    27    1
    25    25    28    1
    26     4     5   ar
    27     5     6   ar
    28     6    29    1
    29    29    30    1
    30    30    31   am
    31    31    32    2
    32    31    33    1
    33    33    34    1
    34    34    37    1
    35    37    38   ar
    36    38    39   ar
    37    39    43    1
    38    43    44    1
    39    43    45    1
    40    43    46    1
    41    39    40   ar
    42    40    41   ar
    43    41    47    1
    44    47    48    1
    45    47    49    1
    46    47    50    1
    47    41    42   ar
    48    34    35    1
    49    35    36    1
    50    12     7   ar
    51     6     1   ar
    52    35    30    1
    53    18    13   ar
    54    42    37   ar
