@<TRIPOS>MOLECULE
*****
 30 33 0 0 0
SMALL
GASTEIGER

@<TRIPOS>ATOM
      1 C         140.0739  140.5319  167.1589 C.3     1  UNL1        0.0333
      2 C         140.6410  141.5453  166.2096 C.3     1  UNL1        0.0074
      3 C         140.3372  141.4521  164.7436 C.3     1  UNL1        0.0248
      4 C         139.4662  140.3454  164.2271 C.3     1  UNL1        0.1084
      5 C         138.8991  139.3321  165.1765 C.3     1  UNL1        0.0248
      6 C         139.2029  139.4253  166.6424 C.3     1  UNL1        0.0074
      7 C         140.8404  141.3901  168.1213 C.ar    1  UNL1       -0.0207
      8 C         142.2376  141.0120  168.5147 C.ar    1  UNL1       -0.0042
      9 C         143.0040  141.8702  169.4770 C.ar    1  UNL1        0.0005
     10 C         142.3731  143.1064  170.0460 C.ar    1  UNL1        0.0114
     11 C         140.9759  143.4845  169.6526 C.ar    1  UNL1        0.0574
     12 CL        140.3451  144.7208  170.2216 Cl      1  UNL1       -0.0823
     13 C         140.2095  142.6263  168.6903 C.ar    1  UNL1        0.0072
     14 N         139.1624  140.2522  162.7611 N.ar    1  UNL1       -0.2186
     15 N         140.1031  139.5272  161.8449 N.ar    1  UNL1       -0.1668
     16 C         139.7992  139.4341  160.3789 C.ar    1  UNL1        0.1026
     17 C         138.5548  140.0658  159.8293 C.ar    1  UNL1        0.0258
     18 C         137.6141  140.7908  160.7455 C.ar    1  UNL1        0.0638
     19 C         137.9180  140.8839  162.2115 C.ar    1  UNL1        0.2764
     20 O         136.9772  141.6089  163.1277 O.2     1  UNL1       -0.2655
     21 C         140.7399  138.7091  159.4626 C.ar    1  UNL1        0.0385
     22 C         140.2933  138.3192  158.0847 C.ar    1  UNL1        0.0047
     23 C         141.2340  137.5942  157.1684 C.ar    1  UNL1        0.0207
     24 C         142.6213  137.2592  157.6301 C.ar    1  UNL1        0.0989
     25 N         143.0679  137.6490  159.0080 N.ar    1  UNL1       -0.2423
     26 C         142.1272  138.3740  159.9243 C.ar    1  UNL1        0.1004
     27 N         138.3555  139.4783  168.7982 N.3     1  UNL1       -0.3209
     28 C         139.7729  139.8165  168.4426 C.3     1  UNL1        0.0691
     29 H         138.3361  138.9972  169.6974 H       1  UNL1        0.1189
     30 H         137.9602  138.8718  168.0796 H       1  UNL1        0.1189
@<TRIPOS>BOND
     1    27    28    1
     2     1    28    1
     3     1     7    1
     4     7     8   ar
     5     8     9   ar
     6     9    10   ar
     7    10    11   ar
     8    11    12    1
     9    11    13   ar
    10     1     2    1
    11     2     3    1
    12     3     4    1
    13     4    14    1
    14    14    15   ar
    15    15    16   ar
    16    16    21    1
    17    21    22   ar
    18    22    23   ar
    19    23    24   ar
    20    24    25   ar
    21    25    26   ar
    22    16    17   ar
    23    17    18   ar
    24    18    19   ar
    25    19    20    2
    26     4     5    1
    27     5     6    1
    28     6     1    1
    29    13     7   ar
    30    19    14   ar
    31    26    21   ar
    32    27    29    1
    33    27    30    1
@<TRIPOS>MOLECULE
*****
 30 33 0 0 0
SMALL
GASTEIGER

@<TRIPOS>ATOM
      1 C         140.2806  144.2029  161.7356 C.3     1  UNL1        0.0333
      2 C         140.7268  142.7791  161.5824 C.3     1  UNL1        0.0074
      3 C         140.4273  141.7792  162.6597 C.3     1  UNL1        0.0248
      4 C         139.6816  142.2033  163.8902 C.3     1  UNL1        0.1084
      5 C         139.2354  143.6272  164.0434 C.3     1  UNL1        0.0248
      6 C         139.5349  144.6270  162.9661 C.3     1  UNL1        0.0074
      7 C         140.9524  144.2831  160.3967 C.ar    1  UNL1       -0.0207
      8 C         142.2266  143.5308  160.1507 C.ar    1  UNL1       -0.0042
      9 C         142.8983  143.6110  158.8120 C.ar    1  UNL1        0.0005
     10 C         142.2958  144.4434  157.7192 C.ar    1  UNL1        0.0114
     11 C         141.0216  145.1957  157.9652 C.ar    1  UNL1        0.0574
     12 CL        140.4192  146.0281  156.8725 Cl      1  UNL1       -0.0823
     13 C         140.3499  145.1155  159.3040 C.ar    1  UNL1        0.0072
     14 N         139.3821  141.2035  164.9675 N.ar    1  UNL1       -0.2186
     15 N         140.0620  141.3107  166.3003 N.ar    1  UNL1       -0.1668
     16 C         139.7624  140.3107  167.3776 C.ar    1  UNL1        0.1026
     17 C         138.7831  139.2038  167.1221 C.ar    1  UNL1        0.0258
     18 C         138.1031  139.0966  165.7893 C.ar    1  UNL1        0.0638
     19 C         138.4027  140.0965  164.7121 C.ar    1  UNL1        0.2764
     20 O         137.7227  139.9893  163.3793 O.2     1  UNL1       -0.2655
     21 C         140.4423  140.4179  168.7104 C.ar    1  UNL1        0.0385
     22 C         141.8944  140.0655  168.8421 C.ar    1  UNL1        0.0047
     23 C         142.5743  140.1727  170.1748 C.ar    1  UNL1        0.0207
     24 C         141.8021  140.6323  171.3758 C.ar    1  UNL1        0.0989
     25 N         140.3500  140.9847  171.2442 N.ar    1  UNL1       -0.2423
     26 C         139.6701  140.8775  169.9114 C.ar    1  UNL1        0.1004
     27 N         140.3500  146.6950  162.4668 N.3     1  UNL1       -0.3209
     28 C         140.0677  145.6547  161.4238 C.3     1  UNL1        0.0691
     29 H         140.1519  147.6204  162.0863 H       1  UNL1        0.1189
     30 H         141.3308  146.6433  162.7418 H       1  UNL1        0.1189
@<TRIPOS>BOND
     1    27    28    1
     2     1    28    1
     3     1     7    1
     4     7     8   ar
     5     8     9   ar
     6     9    10   ar
     7    10    11   ar
     8    11    12    1
     9    11    13   ar
    10     1     2    1
    11     2     3    1
    12     3     4    1
    13     4    14    1
    14    14    15   ar
    15    15    16   ar
    16    16    21    1
    17    21    22   ar
    18    22    23   ar
    19    23    24   ar
    20    24    25   ar
    21    25    26   ar
    22    16    17   ar
    23    17    18   ar
    24    18    19   ar
    25    19    20    2
    26     4     5    1
    27     5     6    1
    28     6     1    1
    29    13     7   ar
    30    19    14   ar
    31    26    21   ar
    32    27    29    1
    33    27    30    1
@<TRIPOS>MOLECULE
*****
 30 33 0 0 0
SMALL
GASTEIGER

@<TRIPOS>ATOM
      1 C         140.5453  140.4436  166.1919 C.3     1  UNL1        0.0333
      2 C         139.4707  141.4376  165.8644 C.3     1  UNL1        0.0074
      3 C         139.0786  141.6749  164.4361 C.3     1  UNL1        0.0248
      4 C         139.7610  140.9181  163.3354 C.3     1  UNL1        0.1084
      5 C         140.8356  139.9241  163.6629 C.3     1  UNL1        0.0248
      6 C         141.2277  139.6869  165.0911 C.3     1  UNL1        0.0074
      7 C         140.1936  140.9116  167.5730 C.ar    1  UNL1       -0.0207
      8 C         139.4300  140.0112  168.4983 C.ar    1  UNL1       -0.0042
      9 C         139.0784  140.4792  169.8793 C.ar    1  UNL1        0.0005
     10 C         139.4904  141.8476  170.3351 C.ar    1  UNL1        0.0114
     11 C         140.2540  142.7480  169.4098 C.ar    1  UNL1        0.0574
     12 CL        140.6660  144.1165  169.8656 Cl      1  UNL1       -0.0823
     13 C         140.6056  142.2800  168.0288 C.ar    1  UNL1        0.0072
     14 N         139.3689  141.1553  161.9071 N.ar    1  UNL1       -0.2186
     15 N         139.9888  142.2832  161.1366 N.ar    1  UNL1       -0.1668
     16 C         139.5966  142.5204  159.7082 C.ar    1  UNL1        0.1026
     17 C         138.5846  141.6298  159.0506 C.ar    1  UNL1        0.0258
     18 C         137.9646  140.5020  159.8211 C.ar    1  UNL1        0.0638
     19 C         138.3568  140.2648  161.2494 C.ar    1  UNL1        0.2764
     20 O         137.7369  139.1369  162.0199 O.2     1  UNL1       -0.2655
     21 C         140.2165  143.6483  158.9377 C.ar    1  UNL1        0.0385
     22 C         139.7111  143.9868  157.5666 C.ar    1  UNL1        0.0047
     23 C         140.3311  145.1147  156.7961 C.ar    1  UNL1        0.0207
     24 C         141.4563  145.9039  157.3968 C.ar    1  UNL1        0.0989
     25 N         141.9617  145.5653  158.7679 N.ar    1  UNL1       -0.2423
     26 C         141.3418  144.4375  159.5384 C.ar    1  UNL1        0.1004
     27 N         142.9570  139.5944  166.6526 N.3     1  UNL1       -0.3209
     28 C         141.4977  139.6122  166.9991 C.3     1  UNL1        0.0691
     29 H         143.4527  138.9814  167.2999 H       1  UNL1        0.1189
     30 H         143.3346  140.5394  166.7226 H       1  UNL1        0.1189
@<TRIPOS>BOND
     1    27    28    1
     2     1    28    1
     3     1     7    1
     4     7     8   ar
     5     8     9   ar
     6     9    10   ar
     7    10    11   ar
     8    11    12    1
     9    11    13   ar
    10     1     2    1
    11     2     3    1
    12     3     4    1
    13     4    14    1
    14    14    15   ar
    15    15    16   ar
    16    16    21    1
    17    21    22   ar
    18    22    23   ar
    19    23    24   ar
    20    24    25   ar
    21    25    26   ar
    22    16    17   ar
    23    17    18   ar
    24    18    19   ar
    25    19    20    2
    26     4     5    1
    27     5     6    1
    28     6     1    1
    29    13     7   ar
    30    19    14   ar
    31    26    21   ar
    32    27    29    1
    33    27    30    1
@<TRIPOS>MOLECULE
*****
 30 33 0 0 0
SMALL
GASTEIGER

@<TRIPOS>ATOM
      1 C         142.7555  139.2995  161.3096 C.3     1  UNL1        0.0333
      2 C         141.5140  140.1394  161.3653 C.3     1  UNL1        0.0074
      3 C         140.6432  140.1107  162.5863 C.3     1  UNL1        0.0248
      4 C         141.0139  139.2420  163.7516 C.3     1  UNL1        0.1084
      5 C         142.2554  138.4020  163.6959 C.3     1  UNL1        0.0248
      6 C         143.1262  138.4308  162.4749 C.3     1  UNL1        0.0074
      7 C         142.8243  139.9557  159.9624 C.ar    1  UNL1       -0.0207
      8 C         141.8118  139.6147  158.9096 C.ar    1  UNL1       -0.0042
      9 C         141.8806  140.2709  157.5625 C.ar    1  UNL1        0.0005
     10 C         142.9619  141.2679  157.2682 C.ar    1  UNL1        0.0114
     11 C         143.9745  141.6089  158.3211 C.ar    1  UNL1        0.0574
     12 CL        145.0558  142.6059  158.0268 Cl      1  UNL1       -0.0823
     13 C         143.9056  140.9527  159.6682 C.ar    1  UNL1        0.0072
     14 N         140.1431  139.2132  164.9726 N.ar    1  UNL1       -0.2186
     15 N         140.4872  140.0637  166.1594 N.ar    1  UNL1       -0.1668
     16 C         139.6163  140.0348  167.3804 C.ar    1  UNL1        0.1026
     17 C         138.4015  139.1557  167.4146 C.ar    1  UNL1        0.0258
     18 C         138.0574  138.3053  166.2278 C.ar    1  UNL1        0.0638
     19 C         138.9283  138.3341  165.0068 C.ar    1  UNL1        0.2764
     20 O         138.5842  137.4837  163.8200 O.2     1  UNL1       -0.2655
     21 C         139.9603  140.8853  168.5672 C.ar    1  UNL1        0.0385
     22 C         140.3798  142.3120  168.3712 C.ar    1  UNL1        0.0047
     23 C         140.7239  143.1624  169.5580 C.ar    1  UNL1        0.0207
     24 C         140.6485  142.5860  170.9407 C.ar    1  UNL1        0.0989
     25 N         140.2290  141.1593  171.1368 N.ar    1  UNL1       -0.2423
     26 C         139.8849  140.3088  169.9499 C.ar    1  UNL1        0.1004
     27 N         144.4917  137.3667  161.3190 N.3     1  UNL1       -0.3209
     28 C         144.0210  138.6874  160.7860 C.3     1  UNL1        0.0691
     29 H         145.3609  137.1031  160.8549 H       1  UNL1        0.1189
     30 H         143.7821  136.6559  161.1410 H       1  UNL1        0.1189
@<TRIPOS>BOND
     1    27    28    1
     2     1    28    1
     3     1     7    1
     4     7     8   ar
     5     8     9   ar
     6     9    10   ar
     7    10    11   ar
     8    11    12    1
     9    11    13   ar
    10     1     2    1
    11     2     3    1
    12     3     4    1
    13     4    14    1
    14    14    15   ar
    15    15    16   ar
    16    16    21    1
    17    21    22   ar
    18    22    23   ar
    19    23    24   ar
    20    24    25   ar
    21    25    26   ar
    22    16    17   ar
    23    17    18   ar
    24    18    19   ar
    25    19    20    2
    26     4     5    1
    27     5     6    1
    28     6     1    1
    29    13     7   ar
    30    19    14   ar
    31    26    21   ar
    32    27    29    1
    33    27    30    1
@<TRIPOS>MOLECULE
*****
 30 33 0 0 0
SMALL
GASTEIGER

@<TRIPOS>ATOM
      1 C         140.7606  141.1452  166.0311 C.3     1  UNL1        0.0333
      2 C         140.0393  142.4483  165.8535 C.3     1  UNL1        0.0074
      3 C         139.9301  143.0653  164.4907 C.3     1  UNL1        0.0248
      4 C         140.5423  142.3793  163.3055 C.3     1  UNL1        0.1084
      5 C         141.2636  141.0762  163.4831 C.3     1  UNL1        0.0248
      6 C         141.3728  140.4591  164.8460 C.3     1  UNL1        0.0074
      7 C         140.3494  141.4107  167.4491 C.ar    1  UNL1       -0.0207
      8 C         139.6418  140.3479  168.2363 C.ar    1  UNL1       -0.0042
      9 C         139.2306  140.6134  169.6541 C.ar    1  UNL1        0.0005
     10 C         139.5270  141.9417  170.2848 C.ar    1  UNL1        0.0114
     11 C         140.2346  143.0045  169.4976 C.ar    1  UNL1        0.0574
     12 CL        140.5310  144.3328  170.1283 Cl      1  UNL1       -0.0823
     13 C         140.6458  142.7390  168.0797 C.ar    1  UNL1        0.0072
     14 N         140.4330  142.9964  161.9427 N.ar    1  UNL1       -0.2186
     15 N         139.5740  142.3530  160.8947 N.ar    1  UNL1       -0.1668
     16 C         139.4649  142.9702  159.5318 C.ar    1  UNL1        0.1026
     17 C         140.2146  144.2305  159.2170 C.ar    1  UNL1        0.0258
     18 C         141.0736  144.8739  160.2650 C.ar    1  UNL1        0.0638
     19 C         141.1828  144.2568  161.6278 C.ar    1  UNL1        0.2764
     20 O         142.0418  144.9001  162.6758 O.2     1  UNL1       -0.2655
     21 C         138.6058  142.3268  158.4839 C.ar    1  UNL1        0.0385
     22 C         138.2629  143.0769  157.2310 C.ar    1  UNL1        0.0047
     23 C         137.4038  142.4335  156.1830 C.ar    1  UNL1        0.0207
     24 C         136.8879  141.0400  156.3881 C.ar    1  UNL1        0.0989
     25 N         137.2308  140.2900  157.6409 N.ar    1  UNL1       -0.2423
     26 C         138.0898  140.9334  158.6889 C.ar    1  UNL1        0.1004
     27 N         142.8261  139.7910  166.8374 N.3     1  UNL1       -0.3209
     28 C         141.3392  139.9343  166.7013 C.3     1  UNL1        0.0691
     29 H         143.0410  138.9151  167.3139 H       1  UNL1        0.1189
     30 H         143.1948  140.5723  167.3795 H       1  UNL1        0.1189
@<TRIPOS>BOND
     1    27    28    1
     2     1    28    1
     3     1     7    1
     4     7     8   ar
     5     8     9   ar
     6     9    10   ar
     7    10    11   ar
     8    11    12    1
     9    11    13   ar
    10     1     2    1
    11     2     3    1
    12     3     4    1
    13     4    14    1
    14    14    15   ar
    15    15    16   ar
    16    16    21    1
    17    21    22   ar
    18    22    23   ar
    19    23    24   ar
    20    24    25   ar
    21    25    26   ar
    22    16    17   ar
    23    17    18   ar
    24    18    19   ar
    25    19    20    2
    26     4     5    1
    27     5     6    1
    28     6     1    1
    29    13     7   ar
    30    19    14   ar
    31    26    21   ar
    32    27    29    1
    33    27    30    1
@<TRIPOS>MOLECULE
*****
 30 33 0 0 0
SMALL
GASTEIGER

@<TRIPOS>ATOM
      1 C         139.9190  140.8955  166.8136 C.3     1  UNL1        0.0333
      2 C         140.8697  142.0552  166.8465 C.3     1  UNL1        0.0074
      3 C         141.0277  142.9300  165.6383 C.3     1  UNL1        0.0248
      4 C         140.2349  142.6451  164.3972 C.3     1  UNL1        0.1084
      5 C         139.2842  141.4854  164.3643 C.3     1  UNL1        0.0248
      6 C         139.1262  140.6106  165.5725 C.3     1  UNL1        0.0074
      7 C         140.4450  140.7616  168.2120 C.ar    1  UNL1       -0.0207
      8 C         140.0444  141.7546  169.2624 C.ar    1  UNL1       -0.0042
      9 C         140.5704  141.6205  170.6607 C.ar    1  UNL1        0.0005
     10 C         141.4970  140.4935  171.0086 C.ar    1  UNL1        0.0114
     11 C         141.8977  139.5005  169.9582 C.ar    1  UNL1        0.0574
     12 CL        142.8243  138.3734  170.3062 Cl      1  UNL1       -0.0823
     13 C         141.3717  139.6345  168.5599 C.ar    1  UNL1        0.0072
     14 N         140.3929  143.5199  163.1890 N.ar    1  UNL1       -0.2186
     15 N         141.3105  143.1048  162.0773 N.ar    1  UNL1       -0.1668
     16 C         141.4685  143.9797  160.8691 C.ar    1  UNL1        0.1026
     17 C         140.7089  145.2694  160.7726 C.ar    1  UNL1        0.0258
     18 C         139.7913  145.6845  161.8842 C.ar    1  UNL1        0.0638
     19 C         139.6334  144.8097  163.0924 C.ar    1  UNL1        0.2764
     20 O         138.7158  145.2248  164.2041 O.2     1  UNL1       -0.2655
     21 C         142.3861  143.5646  159.7574 C.ar    1  UNL1        0.0385
     22 C         143.6132  142.7569  160.0599 C.ar    1  UNL1        0.0047
     23 C         144.5308  142.3418  158.9482 C.ar    1  UNL1        0.0207
     24 C         144.2211  142.7345  157.5341 C.ar    1  UNL1        0.0989
     25 N         142.9939  143.5422  157.2316 N.ar    1  UNL1       -0.2423
     26 C         142.0763  143.9573  158.3432 C.ar    1  UNL1        0.1004
     27 N         138.0136  139.1697  166.4378 N.3     1  UNL1       -0.3209
     28 C         139.1509  139.6893  167.2664 C.3     1  UNL1        0.0691
     29 H         137.6082  138.3513  166.8919 H       1  UNL1        0.1189
     30 H         138.3574  138.9102  165.5132 H       1  UNL1        0.1189
@<TRIPOS>BOND
     1    27    28    1
     2     1    28    1
     3     1     7    1
     4     7     8   ar
     5     8     9   ar
     6     9    10   ar
     7    10    11   ar
     8    11    12    1
     9    11    13   ar
    10     1     2    1
    11     2     3    1
    12     3     4    1
    13     4    14    1
    14    14    15   ar
    15    15    16   ar
    16    16    21    1
    17    21    22   ar
    18    22    23   ar
    19    23    24   ar
    20    24    25   ar
    21    25    26   ar
    22    16    17   ar
    23    17    18   ar
    24    18    19   ar
    25    19    20    2
    26     4     5    1
    27     5     6    1
    28     6     1    1
    29    13     7   ar
    30    19    14   ar
    31    26    21   ar
    32    27    29    1
    33    27    30    1
@<TRIPOS>MOLECULE
*****
 30 33 0 0 0
SMALL
GASTEIGER

@<TRIPOS>ATOM
      1 C         139.1717  140.6962  163.4854 C.3     1  UNL1        0.0333
      2 C         140.3548  139.7798  163.5874 C.3     1  UNL1        0.0074
      3 C         141.1939  139.5005  162.3759 C.3     1  UNL1        0.0248
      4 C         140.8498  140.1377  161.0622 C.3     1  UNL1        0.1084
      5 C         139.6667  141.0540  160.9601 C.3     1  UNL1        0.0248
      6 C         138.8277  141.3333  162.1717 C.3     1  UNL1        0.0074
      7 C         139.0957  140.3336  164.9390 C.ar    1  UNL1       -0.0207
      8 C         139.9227  141.0810  165.9426 C.ar    1  UNL1       -0.0042
      9 C         139.8467  140.7185  167.3961 C.ar    1  UNL1        0.0005
     10 C         138.9436  139.6085  167.8459 C.ar    1  UNL1        0.0114
     11 C         138.1165  138.8611  166.8423 C.ar    1  UNL1        0.0574
     12 CL        137.2135  137.7511  167.2921 Cl      1  UNL1       -0.0823
     13 C         138.1926  139.2237  165.3888 C.ar    1  UNL1        0.0072
     14 N         141.6889  139.8584  159.8506 N.ar    1  UNL1       -0.2186
     15 N         141.4139  138.6461  159.0111 N.ar    1  UNL1       -0.1668
     16 C         142.2531  138.3668  157.7994 C.ar    1  UNL1        0.1026
     17 C         143.3671  139.2998  157.4275 C.ar    1  UNL1        0.0258
     18 C         143.6421  140.5121  158.2670 C.ar    1  UNL1        0.0638
     19 C         142.8030  140.7913  159.4785 C.ar    1  UNL1        0.2764
     20 O         143.0780  142.0036  160.3181 O.2     1  UNL1       -0.2655
     21 C         141.9781  137.1545  156.9599 C.ar    1  UNL1        0.0385
     22 C         142.9072  135.9783  157.0140 C.ar    1  UNL1        0.0047
     23 C         142.6322  134.7660  156.1745 C.ar    1  UNL1        0.0207
     24 C         141.4280  134.7301  155.2809 C.ar    1  UNL1        0.0989
     25 N         140.4988  135.9064  155.2268 N.ar    1  UNL1       -0.2423
     26 C         140.7739  137.1187  156.0663 C.ar    1  UNL1        0.1004
     27 N         136.7052  141.4012  163.0742 N.3     1  UNL1       -0.3209
     28 C         137.9622  141.4867  163.8881 C.3     1  UNL1        0.0691
     29 H         135.9901  141.9986  163.4891 H       1  UNL1        0.1189
     30 H         136.3750  140.4362  163.0588 H       1  UNL1        0.1189
@<TRIPOS>BOND
     1    27    28    1
     2     1    28    1
     3     1     7    1
     4     7     8   ar
     5     8     9   ar
     6     9    10   ar
     7    10    11   ar
     8    11    12    1
     9    11    13   ar
    10     1     2    1
    11     2     3    1
    12     3     4    1
    13     4    14    1
    14    14    15   ar
    15    15    16   ar
    16    16    21    1
    17    21    22   ar
    18    22    23   ar
    19    23    24   ar
    20    24    25   ar
    21    25    26   ar
    22    16    17   ar
    23    17    18   ar
    24    18    19   ar
    25    19    20    2
    26     4     5    1
    27     5     6    1
    28     6     1    1
    29    13     7   ar
    30    19    14   ar
    31    26    21   ar
    32    27    29    1
    33    27    30    1
@<TRIPOS>MOLECULE
*****
 30 33 0 0 0
SMALL
GASTEIGER

@<TRIPOS>ATOM
      1 C         140.5326  141.9027  166.0249 C.3     1  UNL1        0.0333
      2 C         141.2972  143.1315  165.6310 C.3     1  UNL1        0.0074
      3 C         141.4127  143.5114  164.1845 C.3     1  UNL1        0.0248
      4 C         140.7635  142.6625  163.1319 C.3     1  UNL1        0.1084
      5 C         139.9988  141.4337  163.5259 C.3     1  UNL1        0.0248
      6 C         139.8833  141.0538  164.9724 C.3     1  UNL1        0.0074
      7 C         140.9688  142.3828  167.3774 C.ar    1  UNL1       -0.0207
      8 C         140.0249  143.1751  168.2325 C.ar    1  UNL1       -0.0042
      9 C         140.4612  143.6551  169.5849 C.ar    1  UNL1        0.0005
     10 C         141.8414  143.3428  170.0824 C.ar    1  UNL1        0.0114
     11 C         142.7854  142.5505  169.2273 C.ar    1  UNL1        0.0574
     12 CL        144.1656  142.2382  169.7247 Cl      1  UNL1       -0.0823
     13 C         142.3491  142.0705  167.8749 C.ar    1  UNL1        0.0072
     14 N         140.8790  143.0424  161.6855 N.ar    1  UNL1       -0.2186
     15 N         141.9138  142.3884  160.8185 N.ar    1  UNL1       -0.1668
     16 C         142.0292  142.7684  159.3720 C.ar    1  UNL1        0.1026
     17 C         141.1099  143.8022  158.7925 C.ar    1  UNL1        0.0258
     18 C         140.0751  144.4563  159.6594 C.ar    1  UNL1        0.0638
     19 C         139.9597  144.0763  161.1059 C.ar    1  UNL1        0.2764
     20 O         138.9249  144.7303  161.9728 O.2     1  UNL1       -0.2655
     21 C         143.0640  142.1143  158.5051 C.ar    1  UNL1        0.0385
     22 C         143.7502  142.9044  157.4304 C.ar    1  UNL1        0.0047
     23 C         144.7850  142.2503  156.5635 C.ar    1  UNL1        0.0207
     24 C         145.1335  140.8063  156.7714 C.ar    1  UNL1        0.0989
     25 N         144.4473  140.0163  157.8461 N.ar    1  UNL1       -0.2423
     26 C         143.4125  140.6703  158.7130 C.ar    1  UNL1        0.1004
     27 N         140.1121  139.3927  166.5474 N.3     1  UNL1       -0.3209
     28 C         139.9194  140.8406  166.8886 C.3     1  UNL1        0.0691
     29 H         139.6305  138.8142  167.2358 H       1  UNL1        0.1189
     30 H         141.1077  139.1714  166.5542 H       1  UNL1        0.1189
@<TRIPOS>BOND
     1    27    28    1
     2     1    28    1
     3     1     7    1
     4     7     8   ar
     5     8     9   ar
     6     9    10   ar
     7    10    11   ar
     8    11    12    1
     9    11    13   ar
    10     1     2    1
    11     2     3    1
    12     3     4    1
    13     4    14    1
    14    14    15   ar
    15    15    16   ar
    16    16    21    1
    17    21    22   ar
    18    22    23   ar
    19    23    24   ar
    20    24    25   ar
    21    25    26   ar
    22    16    17   ar
    23    17    18   ar
    24    18    19   ar
    25    19    20    2
    26     4     5    1
    27     5     6    1
    28     6     1    1
    29    13     7   ar
    30    19    14   ar
    31    26    21   ar
    32    27    29    1
    33    27    30    1
@<TRIPOS>MOLECULE
*****
 30 33 0 0 0
SMALL
GASTEIGER

@<TRIPOS>ATOM
      1 C         143.6776  139.9865  163.2175 C.3     1  UNL1        0.0333
      2 C         142.5655  138.9909  163.0691 C.3     1  UNL1        0.0074
      3 C         142.1912  138.4818  161.7087 C.3     1  UNL1        0.0248
      4 C         142.9290  138.9684  160.4967 C.3     1  UNL1        0.1084
      5 C         144.0411  139.9639  160.6450 C.3     1  UNL1        0.0248
      6 C         144.4154  140.4731  162.0054 C.3     1  UNL1        0.0074
      7 C         143.2778  139.8265  164.6544 C.ar    1  UNL1       -0.0207
      8 C         143.7655  138.6465  165.4416 C.ar    1  UNL1       -0.0042
      9 C         143.3658  138.4866  166.8785 C.ar    1  UNL1        0.0005
     10 C         142.4782  139.5065  167.5281 C.ar    1  UNL1        0.0114
     11 C         141.9905  140.6865  166.7408 C.ar    1  UNL1        0.0574
     12 CL        141.1030  141.7065  167.3904 Cl      1  UNL1       -0.0823
     13 C         142.3903  140.8465  165.3040 C.ar    1  UNL1        0.0072
     14 N         142.5547  138.4592  159.1363 N.ar    1  UNL1       -0.2186
     15 N         142.9890  137.0907  158.7020 N.ar    1  UNL1       -0.1668
     16 C         142.6146  136.5817  157.3415 C.ar    1  UNL1        0.1026
     17 C         141.8061  137.4410  156.4155 C.ar    1  UNL1        0.0258
     18 C         141.3718  138.8096  156.8498 C.ar    1  UNL1        0.0638
     19 C         141.7461  139.3186  158.2102 C.ar    1  UNL1        0.2764
     20 O         141.3118  140.6871  158.6445 O.2     1  UNL1       -0.2655
     21 C         143.0489  135.2131  156.9072 C.ar    1  UNL1        0.0385
     22 C         142.8951  134.7970  155.4743 C.ar    1  UNL1        0.0047
     23 C         143.3294  133.4285  155.0400 C.ar    1  UNL1        0.0207
     24 C         143.9174  132.4762  156.0387 C.ar    1  UNL1        0.0989
     25 N         144.0712  132.8923  157.4715 N.ar    1  UNL1       -0.2423
     26 C         143.6369  134.2609  157.9058 C.ar    1  UNL1        0.1004
     27 N         145.9346  141.2724  163.1705 N.3     1  UNL1       -0.3209
     28 C         144.6508  140.9266  163.8649 C.3     1  UNL1        0.0691
     29 H         146.4709  141.9187  163.7494 H       1  UNL1        0.1189
     30 H         145.7283  141.7110  162.2730 H       1  UNL1        0.1189
@<TRIPOS>BOND
     1    27    28    1
     2     1    28    1
     3     1     7    1
     4     7     8   ar
     5     8     9   ar
     6     9    10   ar
     7    10    11   ar
     8    11    12    1
     9    11    13   ar
    10     1     2    1
    11     2     3    1
    12     3     4    1
    13     4    14    1
    14    14    15   ar
    15    15    16   ar
    16    16    21    1
    17    21    22   ar
    18    22    23   ar
    19    23    24   ar
    20    24    25   ar
    21    25    26   ar
    22    16    17   ar
    23    17    18   ar
    24    18    19   ar
    25    19    20    2
    26     4     5    1
    27     5     6    1
    28     6     1    1
    29    13     7   ar
    30    19    14   ar
    31    26    21   ar
    32    27    29    1
    33    27    30    1
