@<TRIPOS>MOLECULE
*****
 27 29 0 0 0
SMALL
GASTEIGER

@<TRIPOS>ATOM
      1 C         139.9819  140.5133  166.4491 C.2     1  UNL1       -0.0222
      2 C         140.6568  141.8517  166.5058 C.2     1  UNL1       -0.0040
      3 C         141.2849  142.3213  167.7845 C.ar    1  UNL1       -0.0003
      4 C         142.7068  141.9609  168.0982 C.ar    1  UNL1       -0.0000
      5 C         143.3349  142.4306  169.3768 C.ar    1  UNL1       -0.0000
      6 C         142.5411  143.2606  170.3417 C.ar    1  UNL1       -0.0000
      7 C         141.1193  143.6209  170.0280 C.ar    1  UNL1       -0.0000
      8 C         140.4912  143.1513  168.7494 C.ar    1  UNL1       -0.0000
      9 C         140.7035  142.7205  165.2839 C.ar    1  UNL1       -0.0003
     10 C         139.7714  143.8889  165.1584 C.ar    1  UNL1       -0.0000
     11 C         139.8182  144.7577  163.9365 C.ar    1  UNL1        0.0000
     12 C         140.7971  144.4580  162.8402 C.ar    1  UNL1        0.0000
     13 C         141.7292  143.2895  162.9657 C.ar    1  UNL1        0.0000
     14 C         141.6825  142.4207  164.1876 C.ar    1  UNL1       -0.0000
     15 C         140.8438  145.3268  161.6183 C.2     1  UNL1        0.0012
     16 C         140.9879  144.7049  160.2609 C.2     1  UNL1        0.0151
     17 C         141.0347  145.5737  159.0390 C.2     1  UNL1        0.0729
     18 O         139.7622  146.0983  158.4426 O.co2   1  UNL1       -0.5446
     19 O         142.3538  145.9178  158.4134 O.co2   1  UNL1       -0.5446
     20 C         139.3537  140.0437  165.1704 C.ar    1  UNL1       -0.0040
     21 C         138.2267  140.8217  164.5585 C.ar    1  UNL1       -0.0003
     22 C         137.5986  140.3521  163.2799 C.ar    1  UNL1       -0.0000
     23 C         138.0975  139.1044  162.6132 C.ar    1  UNL1       -0.0000
     24 C         139.2244  138.3263  163.2252 C.ar    1  UNL1       -0.0000
     25 C         139.8525  138.7960  164.5038 C.ar    1  UNL1       -0.0003
     26 C         138.8943  139.8863  168.7238 C.3     1  UNL1        0.0050
     27 C         139.9351  139.6445  167.6710 C.3     1  UNL1        0.0264
@<TRIPOS>UNITY_ATOM_ATTR
18 1
charge -1
@<TRIPOS>BOND
     1    26    27    1
     2    27     1    1
     3     1     2    2
     4     2     3    1
     5     3     4   ar
     6     4     5   ar
     7     5     6   ar
     8     6     7   ar
     9     7     8   ar
    10     2     9    1
    11     9    10   ar
    12    10    11   ar
    13    11    12   ar
    14    12    15    1
    15    15    16    2
    16    16    17    1
    17    17    18   ar
    18    17    19   ar
    19    12    13   ar
    20    13    14   ar
    21     1    20    1
    22    20    21   ar
    23    21    22   ar
    24    22    23   ar
    25    23    24   ar
    26    24    25   ar
    27     8     3   ar
    28    14     9   ar
    29    25    20   ar
@<TRIPOS>MOLECULE
*****
 27 29 0 0 0
SMALL
GASTEIGER

@<TRIPOS>ATOM
      1 C         139.9408  140.5187  166.4233 C.2     1  UNL1       -0.0222
      2 C         140.6318  141.8490  166.4743 C.2     1  UNL1       -0.0040
      3 C         141.2485  142.3252  167.7562 C.ar    1  UNL1       -0.0003
      4 C         140.4525  143.1763  168.7006 C.ar    1  UNL1       -0.0000
      5 C         141.0691  143.6525  169.9824 C.ar    1  UNL1       -0.0000
      6 C         142.4818  143.2775  170.3197 C.ar    1  UNL1       -0.0000
      7 C         143.2778  142.4265  169.3753 C.ar    1  UNL1       -0.0000
      8 C         142.6611  141.9503  168.0935 C.ar    1  UNL1       -0.0000
      9 C         140.7062  142.7033  165.2436 C.ar    1  UNL1       -0.0003
     10 C         141.7005  142.3828  164.1672 C.ar    1  UNL1       -0.0000
     11 C         141.7749  143.2370  162.9364 C.ar    1  UNL1        0.0000
     12 C         140.8550  144.4117  162.7820 C.ar    1  UNL1        0.0000
     13 C         139.8606  144.7322  163.8584 C.ar    1  UNL1        0.0000
     14 C         139.7862  143.8780  165.0892 C.ar    1  UNL1       -0.0000
     15 C         140.9294  145.2659  161.5513 C.2     1  UNL1        0.0012
     16 C         141.0991  144.6276  160.2044 C.2     1  UNL1        0.0151
     17 C         141.1735  145.4818  158.9737 C.2     1  UNL1        0.0729
     18 O         139.9315  146.1234  158.4298 O.co2   1  UNL1       -0.5446
     19 O         142.4899  145.6945  158.2868 O.co2   1  UNL1       -0.5446
     20 C         139.3241  140.0425  165.1415 C.ar    1  UNL1       -0.0040
     21 C         139.7798  138.7541  164.5232 C.ar    1  UNL1       -0.0003
     22 C         139.1632  138.2780  163.2414 C.ar    1  UNL1       -0.0000
     23 C         138.0908  139.0902  162.5779 C.ar    1  UNL1       -0.0000
     24 C         137.6351  140.3786  163.1962 C.ar    1  UNL1       -0.0000
     25 C         138.2517  140.8548  164.4780 C.ar    1  UNL1       -0.0003
     26 C         138.8352  139.9515  168.7050 C.3     1  UNL1        0.0050
     27 C         139.8664  139.6645  167.6541 C.3     1  UNL1        0.0264
@<TRIPOS>UNITY_ATOM_ATTR
18 1
charge -1
@<TRIPOS>BOND
     1    26    27    1
     2    27     1    1
     3     1     2    2
     4     2     3    1
     5     3     4   ar
     6     4     5   ar
     7     5     6   ar
     8     6     7   ar
     9     7     8   ar
    10     2     9    1
    11     9    10   ar
    12    10    11   ar
    13    11    12   ar
    14    12    15    1
    15    15    16    2
    16    16    17    1
    17    17    18   ar
    18    17    19   ar
    19    12    13   ar
    20    13    14   ar
    21     1    20    1
    22    20    21   ar
    23    21    22   ar
    24    22    23   ar
    25    23    24   ar
    26    24    25   ar
    27     8     3   ar
    28    14     9   ar
    29    25    20   ar
@<TRIPOS>MOLECULE
*****
 27 29 0 0 0
SMALL
GASTEIGER

@<TRIPOS>ATOM
      1 C         142.6330  140.0578  165.9367 C.2     1  UNL1       -0.0222
      2 C         142.2153  141.4822  166.1518 C.2     1  UNL1       -0.0040
      3 C         142.0632  142.0170  167.5451 C.ar    1  UNL1       -0.0003
      4 C         140.7081  142.4108  168.0535 C.ar    1  UNL1       -0.0000
      5 C         140.5561  142.9455  169.4467 C.ar    1  UNL1       -0.0000
      6 C         141.7592  143.0864  170.3314 C.ar    1  UNL1       -0.0000
      7 C         143.1143  142.6926  169.8229 C.ar    1  UNL1       -0.0000
      8 C         143.2663  142.1579  168.4297 C.ar    1  UNL1       -0.0000
      9 C         141.9496  142.3720  164.9738 C.ar    1  UNL1       -0.0003
     10 C         140.6394  142.2852  164.2487 C.ar    1  UNL1       -0.0000
     11 C         140.3737  143.1750  163.0707 C.ar    1  UNL1        0.0000
     12 C         141.4182  144.1516  162.6178 C.ar    1  UNL1        0.0000
     13 C         142.7285  144.2385  163.3429 C.ar    1  UNL1        0.0000
     14 C         142.9942  143.3487  164.5209 C.ar    1  UNL1       -0.0000
     15 C         141.1525  145.0414  161.4398 C.2     1  UNL1        0.0012
     16 C         141.5001  144.5777  160.0562 C.2     1  UNL1        0.0151
     17 C         141.2344  145.4675  158.8782 C.2     1  UNL1        0.0729
     18 O         139.8253  145.8357  158.5191 O.co2   1  UNL1       -0.5446
     19 O         142.3778  145.9891  158.0593 O.co2   1  UNL1       -0.5446
     20 C         142.7850  139.5230  164.5434 C.ar    1  UNL1       -0.0040
     21 C         144.0247  139.8256  163.7551 C.ar    1  UNL1       -0.0003
     22 C         144.1767  139.2909  162.3619 C.ar    1  UNL1       -0.0000
     23 C         143.0890  138.4535  161.7572 C.ar    1  UNL1       -0.0000
     24 C         141.8494  138.1509  162.5455 C.ar    1  UNL1       -0.0000
     25 C         141.6974  138.6856  163.9387 C.ar    1  UNL1       -0.0003
     26 C         143.7726  137.9587  166.9592 C.3     1  UNL1        0.0050
     27 C         142.8987  139.1680  167.1147 C.3     1  UNL1        0.0264
@<TRIPOS>UNITY_ATOM_ATTR
18 1
charge -1
@<TRIPOS>BOND
     1    26    27    1
     2    27     1    1
     3     1     2    2
     4     2     3    1
     5     3     4   ar
     6     4     5   ar
     7     5     6   ar
     8     6     7   ar
     9     7     8   ar
    10     2     9    1
    11     9    10   ar
    12    10    11   ar
    13    11    12   ar
    14    12    15    1
    15    15    16    2
    16    16    17    1
    17    17    18   ar
    18    17    19   ar
    19    12    13   ar
    20    13    14   ar
    21     1    20    1
    22    20    21   ar
    23    21    22   ar
    24    22    23   ar
    25    23    24   ar
    26    24    25   ar
    27     8     3   ar
    28    14     9   ar
    29    25    20   ar
@<TRIPOS>MOLECULE
*****
 27 29 0 0 0
SMALL
GASTEIGER

@<TRIPOS>ATOM
      1 C         139.6407  140.1133  166.0871 C.2     1  UNL1       -0.0222
      2 C         140.6876  141.1850  166.1601 C.2     1  UNL1       -0.0040
      3 C         141.1497  141.6925  167.4939 C.ar    1  UNL1       -0.0003
      4 C         140.4132  142.8130  168.1662 C.ar    1  UNL1       -0.0000
      5 C         140.8754  143.3204  169.5000 C.ar    1  UNL1       -0.0000
      6 C         142.0740  142.7074  170.1613 C.ar    1  UNL1       -0.0000
      7 C         142.8105  141.5870  169.4890 C.ar    1  UNL1       -0.0000
      8 C         142.3484  141.0795  168.1553 C.ar    1  UNL1       -0.0000
      9 C         141.2723  141.7494  164.8993 C.ar    1  UNL1       -0.0003
     10 C         140.8254  143.0915  164.4005 C.ar    1  UNL1       -0.0000
     11 C         141.4101  143.6559  163.1397 C.ar    1  UNL1        0.0000
     12 C         142.4418  142.8781  162.3777 C.ar    1  UNL1        0.0000
     13 C         142.8888  141.5358  162.8765 C.ar    1  UNL1        0.0000
     14 C         142.3040  140.9715  164.1373 C.ar    1  UNL1       -0.0000
     15 C         143.0265  143.4424  161.1169 C.2     1  UNL1        0.0012
     16 C         142.4237  143.0928  159.7886 C.2     1  UNL1        0.0151
     17 C         143.0084  143.6572  158.5278 C.2     1  UNL1        0.0729
     18 O         142.6236  145.0340  158.0733 O.co2   1  UNL1       -0.5446
     19 O         143.9779  142.8448  157.7215 O.co2   1  UNL1       -0.5446
     20 C         139.1786  139.6058  164.7533 C.ar    1  UNL1       -0.0040
     21 C         139.6553  138.2753  164.2509 C.ar    1  UNL1       -0.0003
     22 C         139.1932  137.7679  162.9172 C.ar    1  UNL1       -0.0000
     23 C         138.2543  138.5909  162.0859 C.ar    1  UNL1       -0.0000
     24 C         137.7775  139.9214  162.5883 C.ar    1  UNL1       -0.0000
     25 C         138.2397  140.4288  163.9221 C.ar    1  UNL1       -0.0003
     26 C         137.7817  138.7592  167.2958 C.3     1  UNL1        0.0050
     27 C         139.0560  139.5489  167.3479 C.3     1  UNL1        0.0264
@<TRIPOS>UNITY_ATOM_ATTR
18 1
charge -1
@<TRIPOS>BOND
     1    26    27    1
     2    27     1    1
     3     1     2    2
     4     2     3    1
     5     3     4   ar
     6     4     5   ar
     7     5     6   ar
     8     6     7   ar
     9     7     8   ar
    10     2     9    1
    11     9    10   ar
    12    10    11   ar
    13    11    12   ar
    14    12    15    1
    15    15    16    2
    16    16    17    1
    17    17    18   ar
    18    17    19   ar
    19    12    13   ar
    20    13    14   ar
    21     1    20    1
    22    20    21   ar
    23    21    22   ar
    24    22    23   ar
    25    23    24   ar
    26    24    25   ar
    27     8     3   ar
    28    14     9   ar
    29    25    20   ar
@<TRIPOS>MOLECULE
*****
 27 29 0 0 0
SMALL
GASTEIGER

@<TRIPOS>ATOM
      1 C         142.3053  140.0219  165.8503 C.2     1  UNL1       -0.0222
      2 C         140.9522  140.1110  165.2091 C.2     1  UNL1       -0.0040
      3 C         139.8135  139.2942  165.7441 C.ar    1  UNL1       -0.0003
      4 C         139.4603  137.9867  165.0993 C.ar    1  UNL1       -0.0000
      5 C         138.3216  137.1700  165.6343 C.ar    1  UNL1       -0.0000
      6 C         137.5361  137.6607  166.8142 C.ar    1  UNL1       -0.0000
      7 C         137.8892  138.9681  167.4590 C.ar    1  UNL1       -0.0000
      8 C         139.0279  139.7849  166.9240 C.ar    1  UNL1       -0.0000
      9 C         140.7377  141.0168  164.0329 C.ar    1  UNL1       -0.0003
     10 C         141.1606  140.5788  162.6620 C.ar    1  UNL1       -0.0000
     11 C         140.9462  141.4846  161.4858 C.ar    1  UNL1        0.0000
     12 C         140.3088  142.8284  161.6804 C.ar    1  UNL1        0.0000
     13 C         139.8859  143.2665  163.0513 C.ar    1  UNL1        0.0000
     14 C         140.1003  142.3607  164.2276 C.ar    1  UNL1       -0.0000
     15 C         140.0944  143.7343  160.5042 C.2     1  UNL1        0.0012
     16 C         141.2347  144.5461  159.9650 C.2     1  UNL1        0.0151
     17 C         141.0203  145.4519  158.7888 C.2     1  UNL1        0.0729
     18 O         139.6276  145.8140  158.3651 O.co2   1  UNL1       -0.5446
     19 O         142.1984  145.9956  158.0363 O.co2   1  UNL1       -0.5446
     20 C         143.4440  140.8387  165.3152 C.ar    1  UNL1       -0.0040
     21 C         144.4676  140.2036  164.4215 C.ar    1  UNL1       -0.0003
     22 C         145.6062  141.0205  163.8865 C.ar    1  UNL1       -0.0000
     23 C         145.7213  142.4724  164.2453 C.ar    1  UNL1       -0.0000
     24 C         144.6977  143.1075  165.1391 C.ar    1  UNL1       -0.0000
     25 C         143.5591  142.2906  165.6741 C.ar    1  UNL1       -0.0003
     26 C         142.6448  139.6939  168.4051 C.3     1  UNL1        0.0050
     27 C         142.5197  139.1161  167.0265 C.3     1  UNL1        0.0264
@<TRIPOS>UNITY_ATOM_ATTR
18 1
charge -1
@<TRIPOS>BOND
     1    26    27    1
     2    27     1    1
     3     1     2    2
     4     2     3    1
     5     3     4   ar
     6     4     5   ar
     7     5     6   ar
     8     6     7   ar
     9     7     8   ar
    10     2     9    1
    11     9    10   ar
    12    10    11   ar
    13    11    12   ar
    14    12    15    1
    15    15    16    2
    16    16    17    1
    17    17    18   ar
    18    17    19   ar
    19    12    13   ar
    20    13    14   ar
    21     1    20    1
    22    20    21   ar
    23    21    22   ar
    24    22    23   ar
    25    23    24   ar
    26    24    25   ar
    27     8     3   ar
    28    14     9   ar
    29    25    20   ar
@<TRIPOS>MOLECULE
*****
 27 29 0 0 0
SMALL
GASTEIGER

@<TRIPOS>ATOM
      1 C         142.2052  140.0218  165.7911 C.2     1  UNL1       -0.0222
      2 C         140.8691  139.9863  165.1103 C.2     1  UNL1       -0.0040
      3 C         139.7390  139.2079  165.7162 C.ar    1  UNL1       -0.0003
      4 C         139.3532  137.8765  165.1432 C.ar    1  UNL1       -0.0000
      5 C         138.2231  137.0983  165.7492 C.ar    1  UNL1       -0.0000
      6 C         137.4789  137.6514  166.9282 C.ar    1  UNL1       -0.0000
      7 C         137.8647  138.9829  167.5013 C.ar    1  UNL1       -0.0000
      8 C         138.9947  139.7611  166.8953 C.ar    1  UNL1       -0.0000
      9 C         140.6630  140.7290  163.8234 C.ar    1  UNL1       -0.0003
     10 C         140.2318  142.1654  163.8474 C.ar    1  UNL1       -0.0000
     11 C         140.0257  142.9082  162.5606 C.ar    1  UNL1        0.0000
     12 C         140.2508  142.2145  161.2498 C.ar    1  UNL1        0.0000
     13 C         140.6821  140.7780  161.2259 C.ar    1  UNL1        0.0000
     14 C         140.8882  140.0352  162.5127 C.ar    1  UNL1       -0.0000
     15 C         140.0448  142.9572  159.9630 C.2     1  UNL1        0.0012
     16 C         140.9523  144.0952  159.6003 C.2     1  UNL1        0.0151
     17 C         140.7462  144.8379  158.3135 C.2     1  UNL1        0.0729
     18 O         141.6324  145.9975  157.9666 O.co2   1  UNL1       -0.5446
     19 O         139.6540  144.4212  157.3736 O.co2   1  UNL1       -0.5446
     20 C         143.3353  140.8001  165.1851 C.ar    1  UNL1       -0.0040
     21 C         144.2931  140.1255  164.2484 C.ar    1  UNL1       -0.0003
     22 C         145.4231  140.9039  163.6424 C.ar    1  UNL1       -0.0000
     23 C         145.5953  142.3568  163.9732 C.ar    1  UNL1       -0.0000
     24 C         144.6375  143.0313  164.9099 C.ar    1  UNL1       -0.0000
     25 C         143.5075  142.2530  165.5158 C.ar    1  UNL1       -0.0003
     26 C         142.5594  140.0352  168.3649 C.3     1  UNL1        0.0050
     27 C         142.4112  139.2791  167.0779 C.3     1  UNL1        0.0264
@<TRIPOS>UNITY_ATOM_ATTR
18 1
charge -1
@<TRIPOS>BOND
     1    26    27    1
     2    27     1    1
     3     1     2    2
     4     2     3    1
     5     3     4   ar
     6     4     5   ar
     7     5     6   ar
     8     6     7   ar
     9     7     8   ar
    10     2     9    1
    11     9    10   ar
    12    10    11   ar
    13    11    12   ar
    14    12    15    1
    15    15    16    2
    16    16    17    1
    17    17    18   ar
    18    17    19   ar
    19    12    13   ar
    20    13    14   ar
    21     1    20    1
    22    20    21   ar
    23    21    22   ar
    24    22    23   ar
    25    23    24   ar
    26    24    25   ar
    27     8     3   ar
    28    14     9   ar
    29    25    20   ar
@<TRIPOS>MOLECULE
*****
 27 29 0 0 0
SMALL
GASTEIGER

@<TRIPOS>ATOM
      1 C         140.2052  140.5359  162.0838 C.2     1  UNL1       -0.0222
      2 C         140.7925  141.8245  162.5782 C.2     1  UNL1       -0.0040
      3 C         140.8824  143.0083  161.6614 C.ar    1  UNL1       -0.0003
      4 C         141.8656  143.0067  160.5286 C.ar    1  UNL1       -0.0000
      5 C         141.9555  144.1905  159.6119 C.ar    1  UNL1       -0.0000
      6 C         141.0622  145.3760  159.8280 C.ar    1  UNL1       -0.0000
      7 C         140.0790  145.3776  160.9608 C.ar    1  UNL1       -0.0000
      8 C         139.9891  144.1938  161.8775 C.ar    1  UNL1       -0.0000
      9 C         141.2900  141.9293  163.9895 C.ar    1  UNL1       -0.0003
     10 C         140.3356  142.2597  165.0985 C.ar    1  UNL1       -0.0000
     11 C         140.8331  142.3645  166.5097 C.ar    1  UNL1        0.0000
     12 C         142.2848  142.1389  166.8119 C.ar    1  UNL1        0.0000
     13 C         143.2393  141.8084  165.7029 C.ar    1  UNL1        0.0000
     14 C         142.7418  141.7036  164.2916 C.ar    1  UNL1       -0.0000
     15 C         142.7823  142.2437  168.2232 C.2     1  UNL1        0.0012
     16 C         141.9148  142.8602  169.2803 C.2     1  UNL1        0.0151
     17 C         142.4123  142.9650  170.6916 C.2     1  UNL1        0.0729
     18 O         141.8393  142.0776  171.7566 O.co2   1  UNL1       -0.5446
     19 O         143.4826  143.9571  171.0377 O.co2   1  UNL1       -0.5446
     20 C         140.1153  139.3520  163.0006 C.ar    1  UNL1       -0.0040
     21 C         138.8859  139.1400  163.8334 C.ar    1  UNL1       -0.0003
     22 C         138.7960  137.9562  164.7502 C.ar    1  UNL1       -0.0000
     23 C         139.9355  136.9844  164.8341 C.ar    1  UNL1       -0.0000
     24 C         141.1649  137.1963  164.0012 C.ar    1  UNL1       -0.0000
     25 C         141.2548  138.3801  163.0845 C.ar    1  UNL1       -0.0003
     26 C         138.2553  140.6537  160.3708 C.3     1  UNL1        0.0050
     27 C         139.7077  140.4311  160.6726 C.3     1  UNL1        0.0264
@<TRIPOS>UNITY_ATOM_ATTR
18 1
charge -1
@<TRIPOS>BOND
     1    26    27    1
     2    27     1    1
     3     1     2    2
     4     2     3    1
     5     3     4   ar
     6     4     5   ar
     7     5     6   ar
     8     6     7   ar
     9     7     8   ar
    10     2     9    1
    11     9    10   ar
    12    10    11   ar
    13    11    12   ar
    14    12    15    1
    15    15    16    2
    16    16    17    1
    17    17    18   ar
    18    17    19   ar
    19    12    13   ar
    20    13    14   ar
    21     1    20    1
    22    20    21   ar
    23    21    22   ar
    24    22    23   ar
    25    23    24   ar
    26    24    25   ar
    27     8     3   ar
    28    14     9   ar
    29    25    20   ar
@<TRIPOS>MOLECULE
*****
 27 29 0 0 0
SMALL
GASTEIGER

@<TRIPOS>ATOM
      1 C         139.4386  139.9837  165.0492 C.2     1  UNL1       -0.0222
      2 C         140.9172  140.2259  165.1183 C.2     1  UNL1       -0.0040
      3 C         141.5696  140.5114  166.4386 C.ar    1  UNL1       -0.0003
      4 C         142.0751  139.3811  167.2853 C.ar    1  UNL1       -0.0000
      5 C         142.7274  139.6666  168.6055 C.ar    1  UNL1       -0.0000
      6 C         142.8742  141.0823  169.0790 C.ar    1  UNL1       -0.0000
      7 C         142.3687  142.2126  168.2323 C.ar    1  UNL1       -0.0000
      8 C         141.7164  141.9271  166.9121 C.ar    1  UNL1       -0.0000
      9 C         141.7436  140.1827  163.8672 C.ar    1  UNL1       -0.0003
     10 C         141.8275  141.3904  162.9817 C.ar    1  UNL1       -0.0000
     11 C         142.6539  141.3472  161.7306 C.ar    1  UNL1        0.0000
     12 C         143.3964  140.0962  161.3651 C.ar    1  UNL1        0.0000
     13 C         143.3126  138.8884  162.2507 C.ar    1  UNL1        0.0000
     14 C         142.4862  138.9316  163.5018 C.ar    1  UNL1       -0.0000
     15 C         144.2228  140.0530  160.1140 C.2     1  UNL1        0.0012
     16 C         143.7899  140.8238  158.9022 C.2     1  UNL1        0.0151
     17 C         144.6163  140.7806  157.6511 C.2     1  UNL1        0.0729
     18 O         144.5079  139.6088  156.7208 O.co2   1  UNL1       -0.5446
     19 O         145.5509  141.9090  157.3303 O.co2   1  UNL1       -0.5446
     20 C         138.7862  139.6983  163.7289 C.ar    1  UNL1       -0.0040
     21 C         138.7161  138.2906  163.2158 C.ar    1  UNL1       -0.0003
     22 C         138.0638  138.0052  161.8956 C.ar    1  UNL1       -0.0000
     23 C         137.4815  139.1275  161.0885 C.ar    1  UNL1       -0.0000
     24 C         137.5516  140.5353  161.6017 C.ar    1  UNL1       -0.0000
     25 C         138.2039  140.8206  162.9219 C.ar    1  UNL1       -0.0003
     26 C         138.0942  138.7540  166.9014 C.3     1  UNL1        0.0050
     27 C         138.6122  140.0270  166.3003 C.3     1  UNL1        0.0264
@<TRIPOS>UNITY_ATOM_ATTR
18 1
charge -1
@<TRIPOS>BOND
     1    26    27    1
     2    27     1    1
     3     1     2    2
     4     2     3    1
     5     3     4   ar
     6     4     5   ar
     7     5     6   ar
     8     6     7   ar
     9     7     8   ar
    10     2     9    1
    11     9    10   ar
    12    10    11   ar
    13    11    12   ar
    14    12    15    1
    15    15    16    2
    16    16    17    1
    17    17    18   ar
    18    17    19   ar
    19    12    13   ar
    20    13    14   ar
    21     1    20    1
    22    20    21   ar
    23    21    22   ar
    24    22    23   ar
    25    23    24   ar
    26    24    25   ar
    27     8     3   ar
    28    14     9   ar
    29    25    20   ar
@<TRIPOS>MOLECULE
*****
 27 29 0 0 0
SMALL
GASTEIGER

@<TRIPOS>ATOM
      1 C         142.0039  140.1918  165.7856 C.2     1  UNL1       -0.0222
      2 C         140.9475  139.4897  164.9851 C.2     1  UNL1       -0.0040
      3 C         139.7515  138.9017  165.6737 C.ar    1  UNL1       -0.0003
      4 C         139.2436  137.5492  165.2705 C.ar    1  UNL1       -0.0000
      5 C         138.0477  136.9613  165.9591 C.ar    1  UNL1       -0.0000
      6 C         137.3598  137.7259  167.0509 C.ar    1  UNL1       -0.0000
      7 C         137.8677  139.0785  167.4541 C.ar    1  UNL1       -0.0000
      8 C         139.0636  139.6664  166.7655 C.ar    1  UNL1       -0.0000
      9 C         141.0868  139.3755  163.4959 C.ar    1  UNL1       -0.0003
     10 C         141.7610  138.1777  162.8954 C.ar    1  UNL1       -0.0000
     11 C         141.9004  138.0635  161.4063 C.ar    1  UNL1        0.0000
     12 C         141.3656  139.1472  160.5177 C.ar    1  UNL1        0.0000
     13 C         140.6913  140.3451  161.1182 C.ar    1  UNL1        0.0000
     14 C         140.5520  140.4593  162.6073 C.ar    1  UNL1       -0.0000
     15 C         141.5049  139.0330  159.0285 C.2     1  UNL1        0.0012
     16 C         142.7964  138.5593  158.4302 C.2     1  UNL1        0.0151
     17 C         142.9357  138.4451  156.9411 C.2     1  UNL1        0.0729
     18 O         143.8490  137.4121  156.3503 O.co2   1  UNL1       -0.5446
     19 O         142.1619  139.3638  156.0428 O.co2   1  UNL1       -0.5446
     20 C         143.1999  140.7798  165.0970 C.ar    1  UNL1       -0.0040
     21 C         144.3441  139.8966  164.6963 C.ar    1  UNL1       -0.0003
     22 C         145.5399  140.4846  164.0077 C.ar    1  UNL1       -0.0000
     23 C         145.5915  141.9558  163.7198 C.ar    1  UNL1       -0.0000
     24 C         144.4473  142.8390  164.1205 C.ar    1  UNL1       -0.0000
     25 C         143.2515  142.2510  164.8091 C.ar    1  UNL1       -0.0003
     26 C         142.6493  139.3967  168.1734 C.3     1  UNL1        0.0050
     27 C         141.8646  140.3060  167.2747 C.3     1  UNL1        0.0264
@<TRIPOS>UNITY_ATOM_ATTR
18 1
charge -1
@<TRIPOS>BOND
     1    26    27    1
     2    27     1    1
     3     1     2    2
     4     2     3    1
     5     3     4   ar
     6     4     5   ar
     7     5     6   ar
     8     6     7   ar
     9     7     8   ar
    10     2     9    1
    11     9    10   ar
    12    10    11   ar
    13    11    12   ar
    14    12    15    1
    15    15    16    2
    16    16    17    1
    17    17    18   ar
    18    17    19   ar
    19    12    13   ar
    20    13    14   ar
    21     1    20    1
    22    20    21   ar
    23    21    22   ar
    24    22    23   ar
    25    23    24   ar
    26    24    25   ar
    27     8     3   ar
    28    14     9   ar
    29    25    20   ar
