@<TRIPOS>MOLECULE
*****
 44 49 0 0 0
SMALL
GASTEIGER

@<TRIPOS>ATOM
      1 C         140.8197  141.0684  169.1798 C.ar    1  UNL1        0.0769
      2 C         142.0142  141.2531  168.2915 C.ar    1  UNL1        0.0065
      3 C         142.0042  140.7013  166.8968 C.ar    1  UNL1        0.0016
      4 C         140.7997  139.9648  166.3902 C.ar    1  UNL1        0.0191
      5 C         139.6052  139.7801  167.2785 C.ar    1  UNL1        0.0509
      6 C         139.6152  140.3319  168.6733 C.ar    1  UNL1        0.0211
      7 N         138.5691  139.0155  166.5090 N.am    1  UNL1       -0.2803
      8 C         139.1233  138.7278  165.1452 C.2     1  UNL1        0.2507
      9 O         138.4220  137.9839  164.0474 O.2     1  UNL1       -0.2698
     10 C         140.5018  139.3145  165.0718 C.2     1  UNL1        0.0682
     11 C         141.4212  139.2603  163.8878 C.2     1  UNL1        0.0527
     12 H         137.6812  138.7493  166.8408 H       1  UNL1        0.1552
     13 C         142.7781  139.8953  163.9621 C.ar    1  UNL1        0.0136
     14 C         143.9739  139.0686  164.3319 C.ar    1  UNL1        0.0012
     15 C         145.3308  139.7037  164.4062 C.ar    1  UNL1        0.0000
     16 C         145.4919  141.1655  164.1108 C.ar    1  UNL1        0.0000
     17 C         144.2962  141.9922  163.7411 C.ar    1  UNL1        0.0000
     18 C         142.9393  141.3571  163.6668 C.ar    1  UNL1        0.0012
     19 C         140.8297  141.6202  170.5746 C.2     1  UNL1        0.3414
     20 O         140.5355  140.7214  171.7388 O.2     1  UNL1       -0.2449
     21 C         140.4335  144.1218  169.9960 C.3     1  UNL1        0.2560
     22 O         141.1340  143.0708  170.8051 O.3     1  UNL1       -0.4413
     23 N         140.9837  138.5712  162.6294 N.pl3   1  UNL1       -0.3124
     24 H         141.0382  137.5906  162.5607 H       1  UNL1        0.1522
     25 C         140.4630  139.3760  161.4756 C.ar    1  UNL1        0.0484
     26 C         140.8852  139.0404  160.0759 C.ar    1  UNL1        0.0159
     27 C         140.3645  139.8453  158.9222 C.ar    1  UNL1        0.0162
     28 C         139.4218  140.9858  159.1681 C.ar    1  UNL1        0.0539
     29 C         138.9997  141.3214  160.5678 C.ar    1  UNL1        0.0162
     30 C         139.5203  140.5165  161.7215 C.ar    1  UNL1        0.0159
     31 N         138.9011  141.7906  158.0143 N.am    1  UNL1       -0.2589
     32 C         137.6104  141.5561  157.2869 C.2     1  UNL1        0.2294
     33 O         136.6138  140.4757  157.5855 O.2     1  UNL1       -0.2745
     34 C         137.4914  142.5919  156.2084 C.3     1  UNL1        0.0874
     35 C         138.7085  143.4665  156.2693 C.3     1  UNL1        0.0312
     36 C         139.5798  142.9713  157.3855 C.3     1  UNL1        0.0962
     37 C         140.8982  143.5543  157.7999 C.3     1  UNL1        0.0926
     38 N         141.1043  144.0132  159.2131 N.3     1  UNL1       -0.2689
     39 C         140.1461  144.9867  159.8328 C.3     1  UNL1        0.0897
     40 C         140.3522  145.4456  161.2460 C.3     1  UNL1        0.0897
     41 N         141.5166  144.9310  162.0393 N.3     1  UNL1       -0.2691
     42 C         141.7227  145.3899  163.4525 C.3     1  UNL1        0.0897
     43 C         142.4749  143.9576  161.4196 C.3     1  UNL1        0.0897
     44 C         142.2687  143.4987  160.0064 C.3     1  UNL1        0.0897
@<TRIPOS>BOND
     1    21    22    1
     2    22    19    1
     3    19    20    2
     4    19     1    1
     5     1     2   ar
     6     2     3   ar
     7     3     4   ar
     8     4     5   ar
     9     5     6   ar
    10     5     7    1
    11     7     8   am
    12     8     9    2
    13     8    10    1
    14    10    11    2
    15    11    23    1
    16    23    25    1
    17    25    26   ar
    18    26    27   ar
    19    27    28   ar
    20    28    31    1
    21    31    32   am
    22    32    33    2
    23    32    34    1
    24    34    35    1
    25    35    36    1
    26    36    37    1
    27    37    38    1
    28    38    39    1
    29    39    40    1
    30    40    41    1
    31    41    42    1
    32    41    43    1
    33    43    44    1
    34    28    29   ar
    35    29    30   ar
    36    11    13    1
    37    13    14   ar
    38    14    15   ar
    39    15    16   ar
    40    16    17   ar
    41    17    18   ar
    42     6     1   ar
    43    30    25   ar
    44    18    13   ar
    45    10     4    1
    46    36    31    1
    47    44    38    1
    48     7    12    1
    49    23    24    1
@<TRIPOS>MOLECULE
*****
 44 49 0 0 0
SMALL
GASTEIGER

@<TRIPOS>ATOM
      1 C         140.9267  142.0027  169.5592 C.ar    1  UNL1        0.0769
      2 C         140.9766  142.9058  168.3626 C.ar    1  UNL1        0.0065
      3 C         140.3189  142.4891  167.0805 C.ar    1  UNL1        0.0016
      4 C         139.6114  141.1692  166.9949 C.ar    1  UNL1        0.0191
      5 C         139.5616  140.2661  168.1915 C.ar    1  UNL1        0.0509
      6 C         140.2192  140.6828  169.4736 C.ar    1  UNL1        0.0211
      7 N         138.7965  139.0333  167.8103 N.am    1  UNL1       -0.2803
      8 C         138.3737  139.1747  166.3781 C.2     1  UNL1        0.2507
      9 O         137.5855  138.1720  165.5884 O.2     1  UNL1       -0.2698
     10 C         138.8773  140.4947  165.8742 C.2     1  UNL1        0.0682
     11 C         138.6812  141.0438  164.4921 C.2     1  UNL1        0.0527
     12 H         138.6055  138.2662  168.3970 H       1  UNL1        0.1552
     13 C         139.2456  142.3859  164.1312 C.ar    1  UNL1        0.0136
     14 C         138.4052  143.6188  164.2843 C.ar    1  UNL1        0.0012
     15 C         138.9698  144.9610  163.9234 C.ar    1  UNL1        0.0000
     16 C         140.3747  145.0700  163.4094 C.ar    1  UNL1        0.0000
     17 C         141.2151  143.8370  163.2562 C.ar    1  UNL1        0.0000
     18 C         140.6506  142.4950  163.6172 C.ar    1  UNL1        0.0012
     19 C         141.5843  142.4194  170.8413 C.2     1  UNL1        0.3414
     20 O         140.8883  142.1903  172.1502 O.2     1  UNL1       -0.2449
     21 C         144.0426  142.4580  170.0018 C.3     1  UNL1        0.2560
     22 O         142.9378  143.0652  170.8146 O.3     1  UNL1       -0.4413
     23 N         137.9207  140.2509  163.4710 N.pl3   1  UNL1       -0.3124
     24 H         136.9772  140.0191  163.6305 H       1  UNL1        0.1522
     25 C         138.5975  139.8111  162.2067 C.ar    1  UNL1        0.0484
     26 C         138.6821  140.7462  161.0368 C.ar    1  UNL1        0.0159
     27 C         139.3590  140.3064  159.7726 C.ar    1  UNL1        0.0162
     28 C         139.9513  138.9316  159.6780 C.ar    1  UNL1        0.0539
     29 C         139.8667  137.9965  160.8478 C.ar    1  UNL1        0.0162
     30 C         139.1898  138.4363  162.1121 C.ar    1  UNL1        0.0159
     31 N         140.6282  138.4918  158.4137 N.am    1  UNL1       -0.2589
     32 C         140.0255  138.5058  157.0402 C.2     1  UNL1        0.2294
     33 O         138.6403  138.9620  156.6897 O.2     1  UNL1       -0.2745
     34 C         141.0514  137.9834  156.0786 C.3     1  UNL1        0.0874
     35 C         142.2881  137.6466  156.8578 C.3     1  UNL1        0.0312
     36 C         142.0265  137.9608  158.3011 C.3     1  UNL1        0.0962
     37 C         142.9934  137.7764  159.4329 C.3     1  UNL1        0.0926
     38 N         143.4617  138.9641  160.2203 N.3     1  UNL1       -0.2689
     39 C         143.5144  140.3177  159.5761 C.3     1  UNL1        0.0897
     40 C         143.9827  141.5054  160.3635 C.3     1  UNL1        0.0897
     41 N         144.3984  141.3396  161.7952 N.3     1  UNL1       -0.2691
     42 C         144.8667  142.5273  162.5826 C.3     1  UNL1        0.0897
     43 C         144.3457  139.9860  162.4394 C.3     1  UNL1        0.0897
     44 C         143.8774  138.7983  161.6520 C.3     1  UNL1        0.0897
@<TRIPOS>BOND
     1    21    22    1
     2    22    19    1
     3    19    20    2
     4    19     1    1
     5     1     2   ar
     6     2     3   ar
     7     3     4   ar
     8     4     5   ar
     9     5     6   ar
    10     5     7    1
    11     7     8   am
    12     8     9    2
    13     8    10    1
    14    10    11    2
    15    11    23    1
    16    23    25    1
    17    25    26   ar
    18    26    27   ar
    19    27    28   ar
    20    28    31    1
    21    31    32   am
    22    32    33    2
    23    32    34    1
    24    34    35    1
    25    35    36    1
    26    36    37    1
    27    37    38    1
    28    38    39    1
    29    39    40    1
    30    40    41    1
    31    41    42    1
    32    41    43    1
    33    43    44    1
    34    28    29   ar
    35    29    30   ar
    36    11    13    1
    37    13    14   ar
    38    14    15   ar
    39    15    16   ar
    40    16    17   ar
    41    17    18   ar
    42     6     1   ar
    43    30    25   ar
    44    18    13   ar
    45    10     4    1
    46    36    31    1
    47    44    38    1
    48     7    12    1
    49    23    24    1
@<TRIPOS>MOLECULE
*****
 44 49 0 0 0
SMALL
GASTEIGER

@<TRIPOS>ATOM
      1 C         141.2407  141.4928  169.2426 C.ar    1  UNL1        0.0769
      2 C         141.2033  142.5612  168.1905 C.ar    1  UNL1        0.0065
      3 C         141.8797  142.3379  166.8704 C.ar    1  UNL1        0.0016
      4 C         142.5934  141.0461  166.6024 C.ar    1  UNL1        0.0191
      5 C         142.6307  139.9777  167.6545 C.ar    1  UNL1        0.0509
      6 C         141.9544  140.2010  168.9746 C.ar    1  UNL1        0.0211
      7 N         143.4056  138.8154  167.1077 N.am    1  UNL1       -0.2803
      8 C         143.8471  139.1657  165.7176 C.2     1  UNL1        0.2507
      9 O         144.6496  138.2909  164.8006 O.2     1  UNL1       -0.2698
     10 C         143.3451  140.5443  165.4053 C.2     1  UNL1        0.0682
     11 C         143.5576  141.2901  164.1214 C.2     1  UNL1        0.0527
     12 H         143.5917  137.9711  167.5785 H       1  UNL1        0.1552
     13 C         142.9928  142.6695  163.9529 C.ar    1  UNL1        0.0136
     14 C         143.8525  143.8696  164.2190 C.ar    1  UNL1        0.0012
     15 C         143.2876  145.2490  164.0505 C.ar    1  UNL1        0.0000
     16 C         141.8631  145.4282  163.6160 C.ar    1  UNL1        0.0000
     17 C         141.0035  144.2282  163.3500 C.ar    1  UNL1        0.0000
     18 C         141.5683  142.8488  163.5184 C.ar    1  UNL1        0.0012
     19 C         140.5643  141.7161  170.5627 C.2     1  UNL1        0.3414
     20 O         141.3553  142.2142  171.7359 O.2     1  UNL1       -0.2449
     21 C         138.4844  140.2540  170.0281 C.3     1  UNL1        0.2560
     22 O         139.0971  141.4414  170.7097 O.3     1  UNL1       -0.4413
     23 N         144.3348  140.6566  163.0058 N.pl3   1  UNL1       -0.3124
     24 H         145.3182  140.6301  163.0441 H       1  UNL1        0.1522
     25 C         143.6137  140.0636  161.8317 C.ar    1  UNL1        0.0484
     26 C         143.1856  138.6264  161.8624 C.ar    1  UNL1        0.0159
     27 C         142.4645  138.0333  160.6884 C.ar    1  UNL1        0.0162
     28 C         142.1716  138.8775  159.4836 C.ar    1  UNL1        0.0539
     29 C         142.5997  140.3148  159.4529 C.ar    1  UNL1        0.0162
     30 C         143.3208  140.9078  160.6269 C.ar    1  UNL1        0.0159
     31 N         141.4505  138.2845  158.3096 N.am    1  UNL1       -0.2589
     32 C         142.0211  137.3046  157.3276 C.2     1  UNL1        0.2294
     33 O         143.4130  136.7457  157.3472 O.2     1  UNL1       -0.2745
     34 C         140.9555  136.9818  156.3225 C.3     1  UNL1        0.0874
     35 C         139.7263  137.7621  156.6833 C.3     1  UNL1        0.0312
     36 C         140.0323  138.5673  157.9114 C.3     1  UNL1        0.0962
     37 C         139.0861  139.4926  158.6173 C.3     1  UNL1        0.0926
     38 N         138.9498  139.4305  160.1098 N.3     1  UNL1       -0.2689
     39 C         138.8481  138.1021  160.7990 C.3     1  UNL1        0.0897
     40 C         138.7118  138.0399  162.2915 C.3     1  UNL1        0.0897
     41 N         138.6773  139.3061  163.0949 N.3     1  UNL1       -0.2691
     42 C         138.5410  139.2440  164.5874 C.3     1  UNL1        0.0897
     43 C         138.7790  140.6345  162.4057 C.3     1  UNL1        0.0897
     44 C         138.9153  140.6967  160.9132 C.3     1  UNL1        0.0897
@<TRIPOS>BOND
     1    21    22    1
     2    22    19    1
     3    19    20    2
     4    19     1    1
     5     1     2   ar
     6     2     3   ar
     7     3     4   ar
     8     4     5   ar
     9     5     6   ar
    10     5     7    1
    11     7     8   am
    12     8     9    2
    13     8    10    1
    14    10    11    2
    15    11    23    1
    16    23    25    1
    17    25    26   ar
    18    26    27   ar
    19    27    28   ar
    20    28    31    1
    21    31    32   am
    22    32    33    2
    23    32    34    1
    24    34    35    1
    25    35    36    1
    26    36    37    1
    27    37    38    1
    28    38    39    1
    29    39    40    1
    30    40    41    1
    31    41    42    1
    32    41    43    1
    33    43    44    1
    34    28    29   ar
    35    29    30   ar
    36    11    13    1
    37    13    14   ar
    38    14    15   ar
    39    15    16   ar
    40    16    17   ar
    41    17    18   ar
    42     6     1   ar
    43    30    25   ar
    44    18    13   ar
    45    10     4    1
    46    36    31    1
    47    44    38    1
    48     7    12    1
    49    23    24    1
@<TRIPOS>MOLECULE
*****
 44 49 0 0 0
SMALL
GASTEIGER

@<TRIPOS>ATOM
      1 C         140.8230  141.9507  168.9440 C.ar    1  UNL1        0.0769
      2 C         141.9458  142.0242  167.9521 C.ar    1  UNL1        0.0065
      3 C         141.9209  141.1608  166.7258 C.ar    1  UNL1        0.0016
      4 C         140.7733  140.2238  166.4914 C.ar    1  UNL1        0.0191
      5 C         139.6505  140.1503  167.4833 C.ar    1  UNL1        0.0509
      6 C         139.6754  141.0138  168.7096 C.ar    1  UNL1        0.0211
      7 N         138.6597  139.1390  166.9878 N.am    1  UNL1       -0.2803
      8 C         139.1701  138.5875  165.6896 C.2     1  UNL1        0.2507
      9 O         138.4931  137.5479  164.8463 O.2     1  UNL1       -0.2698
     10 C         140.4764  139.2579  165.3829 C.2     1  UNL1        0.0682
     11 C         141.3350  139.0066  164.1789 C.2     1  UNL1        0.0527
     12 H         137.8215  138.8823  167.4360 H       1  UNL1        0.1552
     13 C         142.6224  139.7568  164.0060 C.ar    1  UNL1        0.0136
     14 C         142.6249  141.0970  163.3323 C.ar    1  UNL1        0.0012
     15 C         143.9124  141.8471  163.1594 C.ar    1  UNL1        0.0000
     16 C         145.1973  141.2570  163.6602 C.ar    1  UNL1        0.0000
     17 C         145.1948  139.9168  164.3339 C.ar    1  UNL1        0.0000
     18 C         143.9074  139.1667  164.5068 C.ar    1  UNL1        0.0012
     19 C         140.8479  142.8142  170.1703 C.2     1  UNL1        0.3414
     20 O         140.1909  144.1625  170.1517 O.2     1  UNL1       -0.2449
     21 C         142.1117  140.9476  171.4621 C.3     1  UNL1        0.2560
     22 O         141.5298  142.3294  171.4152 O.3     1  UNL1       -0.4413
     23 N         140.9063  138.0052  163.1477 N.pl3   1  UNL1       -0.3124
     24 H         140.3223  137.2549  163.4032 H       1  UNL1        0.1522
     25 C         141.3675  138.1468  161.7274 C.ar    1  UNL1        0.0484
     26 C         142.7389  137.6832  161.3344 C.ar    1  UNL1        0.0159
     27 C         143.2000  137.8248  159.9141 C.ar    1  UNL1        0.0162
     28 C         142.2899  138.4299  158.8868 C.ar    1  UNL1        0.0539
     29 C         140.9186  138.8935  159.2798 C.ar    1  UNL1        0.0162
     30 C         140.4574  138.7519  160.7001 C.ar    1  UNL1        0.0159
     31 N         142.7511  138.5715  157.4665 N.am    1  UNL1       -0.2589
     32 C         143.5125  139.7324  156.8983 C.2     1  UNL1        0.2294
     33 O         143.9463  140.9554  157.6506 O.2     1  UNL1       -0.2745
     34 C         143.7638  139.4554  155.4457 C.3     1  UNL1        0.0874
     35 C         143.1578  138.1235  155.1161 C.3     1  UNL1        0.0312
     36 C         142.5319  137.5772  156.3651 C.3     1  UNL1        0.0962
     37 C         141.8131  136.2667  156.4906 C.3     1  UNL1        0.0926
     38 N         142.5746  134.9795  156.3755 N.3     1  UNL1       -0.2689
     39 C         143.4406  134.5165  157.5093 C.3     1  UNL1        0.0897
     40 C         144.2022  133.2293  157.3942 C.3     1  UNL1        0.0897
     41 N         144.0977  132.4051  156.1453 N.3     1  UNL1       -0.2691
     42 C         144.8592  131.1179  156.0303 C.3     1  UNL1        0.0897
     43 C         143.2317  132.8681  155.0115 C.3     1  UNL1        0.0897
     44 C         142.4701  134.1553  155.1266 C.3     1  UNL1        0.0897
@<TRIPOS>BOND
     1    21    22    1
     2    22    19    1
     3    19    20    2
     4    19     1    1
     5     1     2   ar
     6     2     3   ar
     7     3     4   ar
     8     4     5   ar
     9     5     6   ar
    10     5     7    1
    11     7     8   am
    12     8     9    2
    13     8    10    1
    14    10    11    2
    15    11    23    1
    16    23    25    1
    17    25    26   ar
    18    26    27   ar
    19    27    28   ar
    20    28    31    1
    21    31    32   am
    22    32    33    2
    23    32    34    1
    24    34    35    1
    25    35    36    1
    26    36    37    1
    27    37    38    1
    28    38    39    1
    29    39    40    1
    30    40    41    1
    31    41    42    1
    32    41    43    1
    33    43    44    1
    34    28    29   ar
    35    29    30   ar
    36    11    13    1
    37    13    14   ar
    38    14    15   ar
    39    15    16   ar
    40    16    17   ar
    41    17    18   ar
    42     6     1   ar
    43    30    25   ar
    44    18    13   ar
    45    10     4    1
    46    36    31    1
    47    44    38    1
    48     7    12    1
    49    23    24    1
@<TRIPOS>MOLECULE
*****
 44 49 0 0 0
SMALL
GASTEIGER

@<TRIPOS>ATOM
      1 C         140.8032  141.1237  169.2380 C.ar    1  UNL1        0.0769
      2 C         141.9765  141.3596  168.3337 C.ar    1  UNL1        0.0065
      3 C         141.9730  140.8046  166.9402 C.ar    1  UNL1        0.0016
      4 C         140.7961  140.0137  166.4509 C.ar    1  UNL1        0.0191
      5 C         139.6228  139.7778  167.3551 C.ar    1  UNL1        0.0509
      6 C         139.6264  140.3328  168.7487 C.ar    1  UNL1        0.0211
      7 N         138.6120  138.9658  166.6007 N.am    1  UNL1       -0.2803
      8 C         139.1607  138.6999  165.2302 C.2     1  UNL1        0.2507
      9 O         138.4791  137.9228  164.1431 O.2     1  UNL1       -0.2698
     10 C         140.5105  139.3475  165.1376 C.2     1  UNL1        0.0682
     11 C         141.4158  139.3318  163.9417 C.2     1  UNL1        0.0527
     12 H         137.7414  138.6609  166.9447 H       1  UNL1        0.1552
     13 C         142.7438  140.0270  163.9971 C.ar    1  UNL1        0.0136
     14 C         142.8315  141.4994  163.7241 C.ar    1  UNL1        0.0012
     15 C         144.1596  142.1946  163.7795 C.ar    1  UNL1        0.0000
     16 C         145.3999  141.4175  164.1078 C.ar    1  UNL1        0.0000
     17 C         145.3121  139.9451  164.3807 C.ar    1  UNL1        0.0000
     18 C         143.9841  139.2500  164.3254 C.ar    1  UNL1        0.0012
     19 C         140.8068  141.6787  170.6315 C.2     1  UNL1        0.3414
     20 O         140.6348  140.7604  171.8050 O.2     1  UNL1       -0.2449
     21 C         140.3539  144.1318  169.9055 C.3     1  UNL1        0.2560
     22 O         140.9824  143.1520  170.8516 O.3     1  UNL1       -0.4413
     23 N         140.9931  138.6208  162.6904 N.pl3   1  UNL1       -0.3124
     24 H         140.4575  137.7969  162.7494 H       1  UNL1        0.1522
     25 C         141.3867  139.1650  161.3492 C.ar    1  UNL1        0.0484
     26 C         140.4884  140.1350  160.6404 C.ar    1  UNL1        0.0159
     27 C         140.8819  140.6792  159.2992 C.ar    1  UNL1        0.0162
     28 C         142.1737  140.2536  158.6666 C.ar    1  UNL1        0.0539
     29 C         143.0719  139.2836  159.3754 C.ar    1  UNL1        0.0162
     30 C         142.6784  138.7394  160.7166 C.ar    1  UNL1        0.0159
     31 N         142.5672  140.7978  157.3254 N.am    1  UNL1       -0.2589
     32 C         142.2650  140.1712  155.9964 C.2     1  UNL1        0.2294
     33 O         141.5163  138.8904  155.7754 O.2     1  UNL1       -0.2745
     34 C         142.8430  141.0504  154.9273 C.3     1  UNL1        0.0874
     35 C         143.5024  142.2203  155.5955 C.3     1  UNL1        0.0312
     36 C         143.3319  142.0642  157.0777 C.3     1  UNL1        0.0962
     37 C         143.8374  143.0087  158.1276 C.3     1  UNL1        0.0926
     38 N         142.8674  143.7522  158.9973 N.3     1  UNL1       -0.2689
     39 C         141.8815  144.6999  158.3810 C.3     1  UNL1        0.0897
     40 C         140.9115  145.4434  159.2506 C.3     1  UNL1        0.0897
     41 N         140.9274  145.2393  160.7366 N.3     1  UNL1       -0.2691
     42 C         139.9574  145.9828  161.6062 C.3     1  UNL1        0.0897
     43 C         141.9133  144.2916  161.3529 C.3     1  UNL1        0.0897
     44 C         142.8833  143.5480  160.4832 C.3     1  UNL1        0.0897
@<TRIPOS>BOND
     1    21    22    1
     2    22    19    1
     3    19    20    2
     4    19     1    1
     5     1     2   ar
     6     2     3   ar
     7     3     4   ar
     8     4     5   ar
     9     5     6   ar
    10     5     7    1
    11     7     8   am
    12     8     9    2
    13     8    10    1
    14    10    11    2
    15    11    23    1
    16    23    25    1
    17    25    26   ar
    18    26    27   ar
    19    27    28   ar
    20    28    31    1
    21    31    32   am
    22    32    33    2
    23    32    34    1
    24    34    35    1
    25    35    36    1
    26    36    37    1
    27    37    38    1
    28    38    39    1
    29    39    40    1
    30    40    41    1
    31    41    42    1
    32    41    43    1
    33    43    44    1
    34    28    29   ar
    35    29    30   ar
    36    11    13    1
    37    13    14   ar
    38    14    15   ar
    39    15    16   ar
    40    16    17   ar
    41    17    18   ar
    42     6     1   ar
    43    30    25   ar
    44    18    13   ar
    45    10     4    1
    46    36    31    1
    47    44    38    1
    48     7    12    1
    49    23    24    1
@<TRIPOS>MOLECULE
*****
 44 49 0 0 0
SMALL
GASTEIGER

@<TRIPOS>ATOM
      1 C         140.2923  141.5857  169.2606 C.ar    1  UNL1        0.0769
      2 C         140.7651  142.6057  168.2676 C.ar    1  UNL1        0.0065
      3 C         140.5683  142.3704  166.7993 C.ar    1  UNL1        0.0016
      4 C         139.8988  141.1151  166.3240 C.ar    1  UNL1        0.0191
      5 C         139.4260  140.0951  167.3170 C.ar    1  UNL1        0.0509
      6 C         139.6228  140.3304  168.7853 C.ar    1  UNL1        0.0211
      7 N         138.8042  138.9614  166.5566 N.am    1  UNL1       -0.2803
      8 C         138.8927  139.2808  165.0937 C.2     1  UNL1        0.2507
      9 O         138.3925  138.4202  163.9715 O.2     1  UNL1       -0.2698
     10 C         139.5692  140.6118  164.9499 C.2     1  UNL1        0.0682
     11 C         139.8643  141.3160  163.6588 C.2     1  UNL1        0.0527
     12 H         138.4076  138.1502  166.9489 H       1  UNL1        0.1552
     13 C         140.5503  142.6498  163.6716 C.ar    1  UNL1        0.0136
     14 C         139.7390  143.9109  163.6341 C.ar    1  UNL1        0.0012
     15 C         140.4251  145.2448  163.6470 C.ar    1  UNL1        0.0000
     16 C         141.9225  145.3175  163.6974 C.ar    1  UNL1        0.0000
     17 C         142.7338  144.0564  163.7349 C.ar    1  UNL1        0.0000
     18 C         142.0477  142.7226  163.7220 C.ar    1  UNL1        0.0012
     19 C         140.4891  141.8210  170.7289 C.2     1  UNL1        0.3414
     20 O         139.6891  142.8764  171.4332 O.2     1  UNL1       -0.2449
     21 C         142.6316  140.3521  170.7743 C.3     1  UNL1        0.2560
     22 O         141.4859  141.0008  171.4929 O.3     1  UNL1       -0.4413
     23 N         139.4733  140.6863  162.3547 N.pl3   1  UNL1       -0.3124
     24 H         138.5722  140.3061  162.2422 H       1  UNL1        0.1522
     25 C         140.4553  140.6359  161.2220 C.ar    1  UNL1        0.0484
     26 C         140.3231  141.5895  160.0717 C.ar    1  UNL1        0.0159
     27 C         141.3051  141.5391  158.9390 C.ar    1  UNL1        0.0162
     28 C         142.4194  140.5351  158.9564 C.ar    1  UNL1        0.0539
     29 C         142.5516  139.5814  160.1067 C.ar    1  UNL1        0.0162
     30 C         141.5696  139.6318  161.2394 C.ar    1  UNL1        0.0159
     31 N         143.4014  140.4847  157.8237 N.am    1  UNL1       -0.2589
     32 C         144.6487  141.3088  157.7008 C.2     1  UNL1        0.2294
     33 O         145.1330  142.3280  158.6890 O.2     1  UNL1       -0.2745
     34 C         145.3267  140.9348  156.4161 C.3     1  UNL1        0.0874
     35 C         144.4985  139.8795  155.7451 C.3     1  UNL1        0.0312
     36 C         143.3085  139.6013  156.6150 C.3     1  UNL1        0.0962
     37 C         142.2173  138.6133  156.3268 C.3     1  UNL1        0.0926
     38 N         142.5539  137.1693  156.0995 N.3     1  UNL1       -0.2689
     39 C         143.0110  136.3163  157.2456 C.3     1  UNL1        0.0897
     40 C         143.3475  134.8723  157.0184 C.3     1  UNL1        0.0897
     41 N         143.2269  134.2813  155.6450 N.3     1  UNL1       -0.2691
     42 C         143.5635  132.8373  155.4178 C.3     1  UNL1        0.0897
     43 C         142.7699  135.1342  154.4989 C.3     1  UNL1        0.0897
     44 C         142.4333  136.5782  154.7262 C.3     1  UNL1        0.0897
@<TRIPOS>BOND
     1    21    22    1
     2    22    19    1
     3    19    20    2
     4    19     1    1
     5     1     2   ar
     6     2     3   ar
     7     3     4   ar
     8     4     5   ar
     9     5     6   ar
    10     5     7    1
    11     7     8   am
    12     8     9    2
    13     8    10    1
    14    10    11    2
    15    11    23    1
    16    23    25    1
    17    25    26   ar
    18    26    27   ar
    19    27    28   ar
    20    28    31    1
    21    31    32   am
    22    32    33    2
    23    32    34    1
    24    34    35    1
    25    35    36    1
    26    36    37    1
    27    37    38    1
    28    38    39    1
    29    39    40    1
    30    40    41    1
    31    41    42    1
    32    41    43    1
    33    43    44    1
    34    28    29   ar
    35    29    30   ar
    36    11    13    1
    37    13    14   ar
    38    14    15   ar
    39    15    16   ar
    40    16    17   ar
    41    17    18   ar
    42     6     1   ar
    43    30    25   ar
    44    18    13   ar
    45    10     4    1
    46    36    31    1
    47    44    38    1
    48     7    12    1
    49    23    24    1
@<TRIPOS>MOLECULE
*****
 44 49 0 0 0
SMALL
GASTEIGER

@<TRIPOS>ATOM
      1 C         140.8219  141.7881  169.3120 C.ar    1  UNL1        0.0769
      2 C         141.9437  141.7895  168.3163 C.ar    1  UNL1        0.0065
      3 C         141.8802  140.8955  167.1135 C.ar    1  UNL1        0.0016
      4 C         140.6948  140.0000  166.9064 C.ar    1  UNL1        0.0191
      5 C         139.5730  139.9986  167.9021 C.ar    1  UNL1        0.0509
      6 C         139.6365  140.8926  169.1049 C.ar    1  UNL1        0.0211
      7 N         138.5405  139.0155  167.4356 N.am    1  UNL1       -0.2803
      8 C         139.0242  138.4094  166.1517 C.2     1  UNL1        0.2507
      9 O         138.3032  137.3762  165.3376 O.2     1  UNL1       -0.2698
     10 C         140.3557  139.0179  165.8246 C.2     1  UNL1        0.0682
     11 C         141.1999  138.7001  164.6261 C.2     1  UNL1        0.0527
     12 H         137.6939  138.8050  167.8921 H       1  UNL1        0.1552
     13 C         142.5160  139.3925  164.4308 C.ar    1  UNL1        0.0136
     14 C         143.7831  138.7414  164.9006 C.ar    1  UNL1        0.0012
     15 C         145.0993  139.4339  164.7052 C.ar    1  UNL1        0.0000
     16 C         145.1485  140.7774  164.0401 C.ar    1  UNL1        0.0000
     17 C         143.8814  141.4285  163.5703 C.ar    1  UNL1        0.0000
     18 C         142.5653  140.7361  163.7656 C.ar    1  UNL1        0.0012
     19 C         140.8854  142.6821  170.5148 C.2     1  UNL1        0.3414
     20 O         140.7089  142.1053  171.8881 O.2     1  UNL1       -0.2449
     21 C         139.9682  145.1071  170.3485 C.3     1  UNL1        0.2560
     22 O         141.1255  144.1529  170.3442 O.3     1  UNL1       -0.4413
     23 N         140.7278  137.6898  163.6229 N.pl3   1  UNL1       -0.3124
     24 H         140.6500  136.7421  163.8779 H       1  UNL1        0.1522
     25 C         140.3744  138.1234  162.2311 C.ar    1  UNL1        0.0484
     26 C         141.4552  138.3209  161.2098 C.ar    1  UNL1        0.0159
     27 C         141.1017  138.7545  159.8181 C.ar    1  UNL1        0.0162
     28 C         139.6676  138.9907  159.4475 C.ar    1  UNL1        0.0539
     29 C         138.5868  138.7932  160.4687 C.ar    1  UNL1        0.0162
     30 C         138.9402  138.3596  161.8605 C.ar    1  UNL1        0.0159
     31 N         139.3142  139.4244  158.0557 N.am    1  UNL1       -0.2589
     32 C         139.5258  138.6266  156.8032 C.2     1  UNL1        0.2294
     33 O         140.1279  137.2552  156.7225 O.2     1  UNL1       -0.2745
     34 C         139.0295  139.4411  155.6455 C.3     1  UNL1        0.0874
     35 C         138.5111  140.7422  156.1825 C.3     1  UNL1        0.0312
     36 C         138.6871  140.7319  157.6722 C.3     1  UNL1        0.0962
     37 C         138.3034  141.8353  158.6130 C.3     1  UNL1        0.0926
     38 N         139.3461  142.4815  159.4762 N.3     1  UNL1       -0.2689
     39 C         139.1884  142.4842  160.9679 C.3     1  UNL1        0.0897
     40 C         140.2312  143.1304  161.8311 C.3     1  UNL1        0.0897
     41 N         141.4316  143.7738  161.2027 N.3     1  UNL1       -0.2691
     42 C         142.4744  144.4200  162.0660 C.3     1  UNL1        0.0897
     43 C         141.5893  143.7710  159.7111 C.3     1  UNL1        0.0897
     44 C         140.5466  143.1249  158.8478 C.3     1  UNL1        0.0897
@<TRIPOS>BOND
     1    21    22    1
     2    22    19    1
     3    19    20    2
     4    19     1    1
     5     1     2   ar
     6     2     3   ar
     7     3     4   ar
     8     4     5   ar
     9     5     6   ar
    10     5     7    1
    11     7     8   am
    12     8     9    2
    13     8    10    1
    14    10    11    2
    15    11    23    1
    16    23    25    1
    17    25    26   ar
    18    26    27   ar
    19    27    28   ar
    20    28    31    1
    21    31    32   am
    22    32    33    2
    23    32    34    1
    24    34    35    1
    25    35    36    1
    26    36    37    1
    27    37    38    1
    28    38    39    1
    29    39    40    1
    30    40    41    1
    31    41    42    1
    32    41    43    1
    33    43    44    1
    34    28    29   ar
    35    29    30   ar
    36    11    13    1
    37    13    14   ar
    38    14    15   ar
    39    15    16   ar
    40    16    17   ar
    41    17    18   ar
    42     6     1   ar
    43    30    25   ar
    44    18    13   ar
    45    10     4    1
    46    36    31    1
    47    44    38    1
    48     7    12    1
    49    23    24    1
@<TRIPOS>MOLECULE
*****
 44 49 0 0 0
SMALL
GASTEIGER

@<TRIPOS>ATOM
      1 C         140.7202  142.0093  168.7066 C.ar    1  UNL1        0.0769
      2 C         141.8784  142.0726  167.7555 C.ar    1  UNL1        0.0065
      3 C         141.9365  141.1408  166.5814 C.ar    1  UNL1        0.0016
      4 C         140.8364  140.1458  166.3584 C.ar    1  UNL1        0.0191
      5 C         139.6783  140.0825  167.3095 C.ar    1  UNL1        0.0509
      6 C         139.6202  141.0143  168.4836 C.ar    1  UNL1        0.0211
      7 N         138.7482  139.0049  166.8363 N.am    1  UNL1       -0.2803
      8 C         139.3316  138.4023  165.5928 C.2     1  UNL1        0.2507
      9 O         138.7300  137.2898  164.7862 O.2     1  UNL1       -0.2698
     10 C         140.6222  139.1074  165.2974 C.2     1  UNL1        0.0682
     11 C         141.5378  138.8238  164.1437 C.2     1  UNL1        0.0527
     12 H         137.9032  138.7398  167.2665 H       1  UNL1        0.1552
     13 C         142.8010  139.6152  163.9765 C.ar    1  UNL1        0.0136
     14 C         144.0967  139.0817  164.5118 C.ar    1  UNL1        0.0012
     15 C         145.3600  139.8732  164.3446 C.ar    1  UNL1        0.0000
     16 C         145.3275  141.1981  163.6421 C.ar    1  UNL1        0.0000
     17 C         144.0318  141.7316  163.1068 C.ar    1  UNL1        0.0000
     18 C         142.7686  140.9402  163.2740 C.ar    1  UNL1        0.0012
     19 C         140.6621  142.9410  169.8807 C.2     1  UNL1        0.3414
     20 O         140.1182  144.3286  169.7108 O.2     1  UNL1       -0.2449
     21 C         141.8892  141.1877  171.3537 C.3     1  UNL1        0.2560
     22 O         141.1479  142.4853  171.2246 O.3     1  UNL1       -0.4413
     23 N         141.1902  137.7489  163.1569 N.pl3   1  UNL1       -0.3124
     24 H         140.9182  136.8578  163.4752 H       1  UNL1        0.1522
     25 C         141.2570  138.0315  161.6853 C.ar    1  UNL1        0.0484
     26 C         140.0058  138.3646  160.9280 C.ar    1  UNL1        0.0159
     27 C         140.0727  138.6473  159.4564 C.ar    1  UNL1        0.0162
     28 C         141.3906  138.5968  158.7420 C.ar    1  UNL1        0.0539
     29 C         142.6418  138.2637  159.4994 C.ar    1  UNL1        0.0162
     30 C         142.5750  137.9810  160.9710 C.ar    1  UNL1        0.0159
     31 N         141.4575  138.8795  157.2704 N.am    1  UNL1       -0.2589
     32 C         141.3419  137.8649  156.1716 C.2     1  UNL1        0.2294
     33 O         141.1393  136.3896  156.3515 O.2     1  UNL1       -0.2745
     34 C         141.4646  138.5847  154.8614 C.3     1  UNL1        0.0874
     35 C         141.6560  140.0441  155.1503 C.3     1  UNL1        0.0312
     36 C         141.6516  140.2263  156.6393 C.3     1  UNL1        0.0962
     37 C         141.8130  141.5269  157.3689 C.3     1  UNL1        0.0926
     38 N         140.8670  141.8885  158.4754 N.3     1  UNL1       -0.2689
     39 C         139.4036  142.0496  158.1884 C.3     1  UNL1        0.0897
     40 C         138.4576  142.4112  159.2949 C.3     1  UNL1        0.0897
     41 N         138.9750  142.6118  160.6885 N.3     1  UNL1       -0.2691
     42 C         138.0290  142.9734  161.7950 C.3     1  UNL1        0.0897
     43 C         140.4384  142.4507  160.9755 C.3     1  UNL1        0.0897
     44 C         141.3844  142.0890  159.8690 C.3     1  UNL1        0.0897
@<TRIPOS>BOND
     1    21    22    1
     2    22    19    1
     3    19    20    2
     4    19     1    1
     5     1     2   ar
     6     2     3   ar
     7     3     4   ar
     8     4     5   ar
     9     5     6   ar
    10     5     7    1
    11     7     8   am
    12     8     9    2
    13     8    10    1
    14    10    11    2
    15    11    23    1
    16    23    25    1
    17    25    26   ar
    18    26    27   ar
    19    27    28   ar
    20    28    31    1
    21    31    32   am
    22    32    33    2
    23    32    34    1
    24    34    35    1
    25    35    36    1
    26    36    37    1
    27    37    38    1
    28    38    39    1
    29    39    40    1
    30    40    41    1
    31    41    42    1
    32    41    43    1
    33    43    44    1
    34    28    29   ar
    35    29    30   ar
    36    11    13    1
    37    13    14   ar
    38    14    15   ar
    39    15    16   ar
    40    16    17   ar
    41    17    18   ar
    42     6     1   ar
    43    30    25   ar
    44    18    13   ar
    45    10     4    1
    46    36    31    1
    47    44    38    1
    48     7    12    1
    49    23    24    1
@<TRIPOS>MOLECULE
*****
 44 49 0 0 0
SMALL
GASTEIGER

@<TRIPOS>ATOM
      1 C         139.9901  140.8926  167.9402 C.ar    1  UNL1        0.0769
      2 C         140.1070  142.0682  167.0161 C.ar    1  UNL1        0.0065
      3 C         139.8192  141.9038  165.5532 C.ar    1  UNL1        0.0016
      4 C         139.4146  140.5637  165.0144 C.ar    1  UNL1        0.0191
      5 C         139.2976  139.3880  165.9385 C.ar    1  UNL1        0.0509
      6 C         139.5854  139.5525  167.4015 C.ar    1  UNL1        0.0211
      7 N         138.8813  138.1985  165.1250 N.am    1  UNL1       -0.2803
      8 C         138.7409  138.6390  163.6981 C.2     1  UNL1        0.2507
      9 O         138.3411  137.7704  162.5424 O.2     1  UNL1       -0.2698
     10 C         139.0705  140.1008  163.6297 C.2     1  UNL1        0.0682
     11 C         139.0581  140.9505  162.3937 C.2     1  UNL1        0.0527
     12 H         138.7272  137.2884  165.4675 H       1  UNL1        0.1552
     13 C         139.4125  142.4055  162.4801 C.ar    1  UNL1        0.0136
     14 C         140.8355  142.8430  162.2964 C.ar    1  UNL1        0.0012
     15 C         141.1898  144.2981  162.3829 C.ar    1  UNL1        0.0000
     16 C         140.1212  145.3155  162.6530 C.ar    1  UNL1        0.0000
     17 C         138.6982  144.8779  162.8367 C.ar    1  UNL1        0.0000
     18 C         138.3439  143.4229  162.7503 C.ar    1  UNL1        0.0012
     19 C         140.2778  141.0570  169.4032 C.2     1  UNL1        0.3414
     20 O         139.1768  141.4444  170.3452 O.2     1  UNL1       -0.2449
     21 C         142.2133  139.4413  170.0301 C.3     1  UNL1        0.2560
     22 O         141.6667  140.8341  169.9240 O.3     1  UNL1       -0.4413
     23 N         138.6914  140.3453  161.0711 N.pl3   1  UNL1       -0.3124
     24 H         137.7531  140.1198  160.8762 H       1  UNL1        0.1522
     25 C         139.7542  140.0837  160.0455 C.ar    1  UNL1        0.0484
     26 C         140.0246  141.0947  158.9708 C.ar    1  UNL1        0.0159
     27 C         141.0874  140.8331  157.9452 C.ar    1  UNL1        0.0162
     28 C         141.8800  139.5605  157.9942 C.ar    1  UNL1        0.0539
     29 C         141.6096  138.5495  159.0688 C.ar    1  UNL1        0.0162
     30 C         140.5468  138.8112  160.0944 C.ar    1  UNL1        0.0159
     31 N         142.9428  139.2989  156.9685 N.am    1  UNL1       -0.2589
     32 C         144.2058  140.0874  156.7868 C.2     1  UNL1        0.2294
     33 O         144.6278  141.2760  157.5987 O.2     1  UNL1       -0.2745
     34 C         144.9728  139.4787  155.6505 C.3     1  UNL1        0.0874
     35 C         144.1839  138.3140  155.1300 C.3     1  UNL1        0.0312
     36 C         142.9292  138.2029  155.9446 C.3     1  UNL1        0.0962
     37 C         141.8504  137.1760  155.7665 C.3     1  UNL1        0.0926
     38 N         142.1265  135.7357  156.0815 N.3     1  UNL1       -0.2689
     39 C         141.4443  134.6527  155.2993 C.3     1  UNL1        0.0897
     40 C         141.7205  133.2124  155.6143 C.3     1  UNL1        0.0897
     41 N         142.6789  132.8550  156.7114 N.3     1  UNL1       -0.2691
     42 C         142.9550  131.4146  157.0264 C.3     1  UNL1        0.0897
     43 C         143.3611  133.9379  157.4936 C.3     1  UNL1        0.0897
     44 C         143.0849  135.3782  157.1786 C.3     1  UNL1        0.0897
@<TRIPOS>BOND
     1    21    22    1
     2    22    19    1
     3    19    20    2
     4    19     1    1
     5     1     2   ar
     6     2     3   ar
     7     3     4   ar
     8     4     5   ar
     9     5     6   ar
    10     5     7    1
    11     7     8   am
    12     8     9    2
    13     8    10    1
    14    10    11    2
    15    11    23    1
    16    23    25    1
    17    25    26   ar
    18    26    27   ar
    19    27    28   ar
    20    28    31    1
    21    31    32   am
    22    32    33    2
    23    32    34    1
    24    34    35    1
    25    35    36    1
    26    36    37    1
    27    37    38    1
    28    38    39    1
    29    39    40    1
    30    40    41    1
    31    41    42    1
    32    41    43    1
    33    43    44    1
    34    28    29   ar
    35    29    30   ar
    36    11    13    1
    37    13    14   ar
    38    14    15   ar
    39    15    16   ar
    40    16    17   ar
    41    17    18   ar
    42     6     1   ar
    43    30    25   ar
    44    18    13   ar
    45    10     4    1
    46    36    31    1
    47    44    38    1
    48     7    12    1
    49    23    24    1
