@<TRIPOS>MOLECULE
*****
 20 22 0 0 0
SMALL
GASTEIGER

@<TRIPOS>ATOM
      1 N         143.4261  143.9195  171.1579 N.pl3   1  UNL1       -0.3375
      2 C         142.5070  142.9874  170.4255 C.ar    1  UNL1        0.1567
      3 N         141.2568  142.3683  170.9765 N.ar    1  UNL1       -0.2245
      4 C         140.6539  141.5089  169.9051 C.ar    1  UNL1        0.0894
      5 C         139.4191  140.6577  169.8775 C.ar    1  UNL1        0.0228
      6 C         139.0620  139.8945  168.6366 C.ar    1  UNL1        0.0385
      7 C         139.9396  139.9824  167.4233 C.ar    1  UNL1        0.1397
      8 C         141.1744  140.8336  167.4509 C.ar    1  UNL1        0.0450
      9 C         141.5315  141.5969  168.6918 C.ar    1  UNL1        0.0527
     10 S         142.6768  142.5106  169.0134 S.2     1  UNL1       -0.0519
     11 H         143.2289  144.1754  172.0878 H       1  UNL1        0.1442
     12 H         144.2266  144.2754  170.7086 H       1  UNL1        0.1442
     13 O         139.5825  139.2191  166.1824 O.3     1  UNL1       -0.4706
     14 C         138.2819  139.4876  165.4849 C.3     1  UNL1        0.2320
     15 C         138.1699  140.6317  164.5213 C.ar    1  UNL1        0.0212
     16 C         138.3944  142.0368  164.9959 C.ar    1  UNL1       -0.0007
     17 C         138.2823  143.1808  164.0323 C.ar    1  UNL1       -0.0002
     18 C         137.9457  142.9198  162.5941 C.ar    1  UNL1       -0.0000
     19 C         137.7212  141.5147  162.1194 C.ar    1  UNL1       -0.0002
     20 C         137.8333  140.3707  163.0830 C.ar    1  UNL1       -0.0007
@<TRIPOS>BOND
     1     1     2    1
     2     2     3   ar
     3     3     4   ar
     4     4     5   ar
     5     5     6   ar
     6     6     7   ar
     7     7    13    1
     8    13    14    1
     9    14    15    1
    10    15    16   ar
    11    16    17   ar
    12    17    18   ar
    13    18    19   ar
    14    19    20   ar
    15     7     8   ar
    16     8     9   ar
    17     9    10   ar
    18    10     2   ar
    19     9     4   ar
    20    20    15   ar
    21     1    11    1
    22     1    12    1
@<TRIPOS>MOLECULE
*****
 20 22 0 0 0
SMALL
GASTEIGER

@<TRIPOS>ATOM
      1 N         139.2243  146.6264  161.3442 N.pl3   1  UNL1       -0.3375
      2 C         139.1973  145.3628  162.1520 C.ar    1  UNL1        0.1567
      3 N         137.9732  144.6983  162.7088 N.ar    1  UNL1       -0.2245
      4 C         138.4090  143.4666  163.4457 C.ar    1  UNL1        0.0894
      5 C         137.6388  142.4207  164.1960 C.ar    1  UNL1        0.0228
      6 C         138.3621  141.2780  164.8448 C.ar    1  UNL1        0.0385
      7 C         139.8556  141.1812  164.7434 C.ar    1  UNL1        0.1397
      8 C         140.6257  142.2271  163.9931 C.ar    1  UNL1        0.0450
      9 C         139.9024  143.3698  163.3443 C.ar    1  UNL1        0.0527
     10 S         140.3896  144.5417  162.5447 S.2     1  UNL1       -0.0519
     11 H         138.3843  147.0961  161.1368 H       1  UNL1        0.1442
     12 H         140.0820  146.9861  161.0215 H       1  UNL1        0.1442
     13 O         140.5789  140.0384  165.3922 O.3     1  UNL1       -0.4706
     14 C         141.4250  140.2793  166.6071 C.3     1  UNL1        0.2320
     15 C         140.8354  140.9546  167.8099 C.ar    1  UNL1        0.0212
     16 C         139.9741  140.1765  168.7599 C.ar    1  UNL1       -0.0007
     17 C         139.3846  140.8517  169.9626 C.ar    1  UNL1       -0.0002
     18 C         139.6564  142.3051  170.2152 C.ar    1  UNL1       -0.0000
     19 C         140.5177  143.0832  169.2652 C.ar    1  UNL1       -0.0002
     20 C         141.1072  142.4080  168.0625 C.ar    1  UNL1       -0.0007
@<TRIPOS>BOND
     1     1     2    1
     2     2     3   ar
     3     3     4   ar
     4     4     5   ar
     5     5     6   ar
     6     6     7   ar
     7     7    13    1
     8    13    14    1
     9    14    15    1
    10    15    16   ar
    11    16    17   ar
    12    17    18   ar
    13    18    19   ar
    14    19    20   ar
    15     7     8   ar
    16     8     9   ar
    17     9    10   ar
    18    10     2   ar
    19     9     4   ar
    20    20    15   ar
    21     1    11    1
    22     1    12    1
@<TRIPOS>MOLECULE
*****
 20 22 0 0 0
SMALL
GASTEIGER

@<TRIPOS>ATOM
      1 N         142.4342  140.5563  171.6814 N.pl3   1  UNL1       -0.3375
      2 C         142.0549  140.2639  170.2599 C.ar    1  UNL1        0.1567
      3 N         142.9829  139.7966  169.1780 N.ar    1  UNL1       -0.2245
      4 C         142.1826  139.6314  167.9202 C.ar    1  UNL1        0.0894
      5 C         142.5655  139.1956  166.5369 C.ar    1  UNL1        0.0228
      6 C         141.5257  139.1250  165.4581 C.ar    1  UNL1        0.0385
      7 C         140.1031  139.4902  165.7626 C.ar    1  UNL1        0.1397
      8 C         139.7202  139.9260  167.1458 C.ar    1  UNL1        0.0450
      9 C         140.7600  139.9966  168.2246 C.ar    1  UNL1        0.0527
     10 S         140.6811  140.3875  169.6706 S.2     1  UNL1       -0.0519
     11 H         143.3673  140.4447  171.9748 H       1  UNL1        0.1442
     12 H         141.7500  140.8599  172.3209 H       1  UNL1        0.1442
     13 O         139.0633  139.4195  164.6837 O.3     1  UNL1       -0.4706
     14 C         138.9823  140.5016  163.6481 C.3     1  UNL1        0.2320
     15 C         139.0345  141.9422  164.0630 C.ar    1  UNL1        0.0212
     16 C         137.7732  142.6591  164.4442 C.ar    1  UNL1       -0.0007
     17 C         137.8254  144.0996  164.8590 C.ar    1  UNL1       -0.0002
     18 C         139.1389  144.8233  164.8927 C.ar    1  UNL1       -0.0000
     19 C         140.4001  144.1064  164.5115 C.ar    1  UNL1       -0.0002
     20 C         140.3479  142.6659  164.0966 C.ar    1  UNL1       -0.0007
@<TRIPOS>BOND
     1     1     2    1
     2     2     3   ar
     3     3     4   ar
     4     4     5   ar
     5     5     6   ar
     6     6     7   ar
     7     7    13    1
     8    13    14    1
     9    14    15    1
    10    15    16   ar
    11    16    17   ar
    12    17    18   ar
    13    18    19   ar
    14    19    20   ar
    15     7     8   ar
    16     8     9   ar
    17     9    10   ar
    18    10     2   ar
    19     9     4   ar
    20    20    15   ar
    21     1    11    1
    22     1    12    1
@<TRIPOS>MOLECULE
*****
 20 22 0 0 0
SMALL
GASTEIGER

@<TRIPOS>ATOM
      1 N         140.5849  140.5263  171.5480 N.pl3   1  UNL1       -0.3375
      2 C         140.2279  140.2711  170.1137 C.ar    1  UNL1        0.1567
      3 N         138.9384  139.6880  169.6164 N.ar    1  UNL1       -0.2245
      4 C         139.0111  139.6107  168.1201 C.ar    1  UNL1        0.0894
      5 C         138.0347  139.1220  167.0917 C.ar    1  UNL1        0.0228
      6 C         138.3927  139.1687  165.6358 C.ar    1  UNL1        0.0385
      7 C         139.7271  139.7041  165.2084 C.ar    1  UNL1        0.1397
      8 C         140.7035  140.1928  166.2368 C.ar    1  UNL1        0.0450
      9 C         140.3455  140.1461  167.6927 C.ar    1  UNL1        0.0527
     10 S         141.0975  140.5542  168.9247 S.2     1  UNL1       -0.0519
     11 H         139.9436  140.3057  172.2617 H       1  UNL1        0.1442
     12 H         141.4606  140.9143  171.7758 H       1  UNL1        0.1442
     13 O         140.0850  139.7508  163.7524 O.3     1  UNL1       -0.4706
     14 C         139.6832  140.9312  162.9187 C.3     1  UNL1        0.2320
     15 C         139.4046  142.2518  163.5734 C.ar    1  UNL1        0.0212
     16 C         137.9961  142.6359  163.9179 C.ar    1  UNL1       -0.0007
     17 C         137.7176  143.9564  164.5726 C.ar    1  UNL1       -0.0002
     18 C         138.8476  144.8928  164.8828 C.ar    1  UNL1       -0.0000
     19 C         140.2561  144.5088  164.5383 C.ar    1  UNL1       -0.0002
     20 C         140.5346  143.1883  163.8836 C.ar    1  UNL1       -0.0007
@<TRIPOS>BOND
     1     1     2    1
     2     2     3   ar
     3     3     4   ar
     4     4     5   ar
     5     5     6   ar
     6     6     7   ar
     7     7    13    1
     8    13    14    1
     9    14    15    1
    10    15    16   ar
    11    16    17   ar
    12    17    18   ar
    13    18    19   ar
    14    19    20   ar
    15     7     8   ar
    16     8     9   ar
    17     9    10   ar
    18    10     2   ar
    19     9     4   ar
    20    20    15   ar
    21     1    11    1
    22     1    12    1
@<TRIPOS>MOLECULE
*****
 20 22 0 0 0
SMALL
GASTEIGER

@<TRIPOS>ATOM
      1 N         140.3924  146.5933  162.4752 N.pl3   1  UNL1       -0.3375
      2 C         139.7238  145.2506  162.4635 C.ar    1  UNL1        0.1567
      3 N         138.8743  144.6791  163.5597 N.ar    1  UNL1       -0.2245
      4 C         138.4128  143.3190  163.1273 C.ar    1  UNL1        0.0894
      5 C         137.5516  142.2908  163.7989 C.ar    1  UNL1        0.0228
      6 C         137.2547  140.9934  163.1071 C.ar    1  UNL1        0.0385
      7 C         137.8191  140.7243  161.7436 C.ar    1  UNL1        0.1397
      8 C         138.6803  141.7524  161.0720 C.ar    1  UNL1        0.0450
      9 C         138.9771  143.0498  161.7638 C.ar    1  UNL1        0.0527
     10 S         139.7874  144.2436  161.3536 S.2     1  UNL1       -0.0519
     11 H         140.2911  147.1869  163.2540 H       1  UNL1        0.1442
     12 H         140.9326  146.8809  161.7040 H       1  UNL1        0.1442
     13 O         137.5222  139.4268  161.0518 O.3     1  UNL1       -0.4706
     14 C         137.7859  138.1264  161.7512 C.3     1  UNL1        0.2320
     15 C         139.0453  137.9438  162.5455 C.ar    1  UNL1        0.0212
     16 C         140.3752  137.9382  161.8518 C.ar    1  UNL1       -0.0007
     17 C         141.6345  137.7556  162.6460 C.ar    1  UNL1       -0.0002
     18 C         141.5639  137.5787  164.1339 C.ar    1  UNL1       -0.0000
     19 C         140.2340  137.5844  164.8275 C.ar    1  UNL1       -0.0002
     20 C         138.9747  137.7669  164.0333 C.ar    1  UNL1       -0.0007
@<TRIPOS>BOND
     1     1     2    1
     2     2     3   ar
     3     3     4   ar
     4     4     5   ar
     5     5     6   ar
     6     6     7   ar
     7     7    13    1
     8    13    14    1
     9    14    15    1
    10    15    16   ar
    11    16    17   ar
    12    17    18   ar
    13    18    19   ar
    14    19    20   ar
    15     7     8   ar
    16     8     9   ar
    17     9    10   ar
    18    10     2   ar
    19     9     4   ar
    20    20    15   ar
    21     1    11    1
    22     1    12    1
@<TRIPOS>MOLECULE
*****
 20 22 0 0 0
SMALL
GASTEIGER

@<TRIPOS>ATOM
      1 N         139.0032  146.2881  161.6280 N.pl3   1  UNL1       -0.3375
      2 C         138.8998  145.0314  162.4404 C.ar    1  UNL1        0.1567
      3 N         138.0523  143.8376  162.1137 N.ar    1  UNL1       -0.2245
      4 C         138.2544  142.8162  163.1935 C.ar    1  UNL1        0.0894
      5 C         137.6786  141.4467  163.4000 C.ar    1  UNL1        0.0228
      6 C         138.0752  140.6396  164.6006 C.ar    1  UNL1        0.0385
      7 C         139.0475  141.2021  165.5946 C.ar    1  UNL1        0.1397
      8 C         139.6233  142.5717  165.3881 C.ar    1  UNL1        0.0450
      9 C         139.2267  143.3788  164.1875 C.ar    1  UNL1        0.0527
     10 S         139.6256  144.7478  163.7221 S.2     1  UNL1       -0.0519
     11 H         138.4845  146.3808  160.7964 H       1  UNL1        0.1442
     12 H         139.5899  147.0203  161.9264 H       1  UNL1        0.1442
     13 O         139.4441  140.3950  166.7952 O.3     1  UNL1       -0.4706
     14 C         140.8852  140.3170  167.2038 C.3     1  UNL1        0.2320
     15 C         141.4248  141.2635  168.2349 C.ar    1  UNL1        0.0212
     16 C         140.5059  142.2340  168.9159 C.ar    1  UNL1       -0.0007
     17 C         141.0455  143.1805  169.9469 C.ar    1  UNL1       -0.0002
     18 C         142.5039  143.1565  170.2969 C.ar    1  UNL1       -0.0000
     19 C         143.4227  142.1860  169.6159 C.ar    1  UNL1       -0.0002
     20 C         142.8832  141.2395  168.5849 C.ar    1  UNL1       -0.0007
@<TRIPOS>BOND
     1     1     2    1
     2     2     3   ar
     3     3     4   ar
     4     4     5   ar
     5     5     6   ar
     6     6     7   ar
     7     7    13    1
     8    13    14    1
     9    14    15    1
    10    15    16   ar
    11    16    17   ar
    12    17    18   ar
    13    18    19   ar
    14    19    20   ar
    15     7     8   ar
    16     8     9   ar
    17     9    10   ar
    18    10     2   ar
    19     9     4   ar
    20    20    15   ar
    21     1    11    1
    22     1    12    1
@<TRIPOS>MOLECULE
*****
 20 22 0 0 0
SMALL
GASTEIGER

@<TRIPOS>ATOM
      1 N         137.4060  144.6766  162.8223 N.pl3   1  UNL1       -0.3375
      2 C         137.7240  143.2176  162.9643 C.ar    1  UNL1        0.1567
      3 N         137.4528  142.1527  161.9433 N.ar    1  UNL1       -0.2245
      4 C         137.9302  140.8442  162.5002 C.ar    1  UNL1        0.0894
      5 C         137.9225  139.4526  161.9405 C.ar    1  UNL1        0.0228
      6 C         138.4810  138.3172  162.7461 C.ar    1  UNL1        0.0385
      7 C         139.0472  138.5735  164.1113 C.ar    1  UNL1        0.1397
      8 C         139.0549  139.9651  164.6709 C.ar    1  UNL1        0.0450
      9 C         138.4964  141.1005  163.8654 C.ar    1  UNL1        0.0527
     10 S         138.3689  142.5673  164.1522 S.2     1  UNL1       -0.0519
     11 H         136.9798  145.0098  161.9997 H       1  UNL1        0.1442
     12 H         137.6234  145.3011  163.5517 H       1  UNL1        0.1442
     13 O         139.6056  137.4380  164.9169 O.3     1  UNL1       -0.4706
     14 C         140.9463  136.8611  164.5708 C.3     1  UNL1        0.2320
     15 C         142.1107  137.7712  164.3136 C.ar    1  UNL1        0.0212
     16 C         142.5304  138.0723  162.9054 C.ar    1  UNL1       -0.0007
     17 C         143.6947  138.9823  162.6482 C.ar    1  UNL1       -0.0002
     18 C         144.4393  139.5912  163.7992 C.ar    1  UNL1       -0.0000
     19 C         144.0195  139.2901  165.2074 C.ar    1  UNL1       -0.0002
     20 C         142.8552  138.3801  165.4646 C.ar    1  UNL1       -0.0007
@<TRIPOS>BOND
     1     1     2    1
     2     2     3   ar
     3     3     4   ar
     4     4     5   ar
     5     5     6   ar
     6     6     7   ar
     7     7    13    1
     8    13    14    1
     9    14    15    1
    10    15    16   ar
    11    16    17   ar
    12    17    18   ar
    13    18    19   ar
    14    19    20   ar
    15     7     8   ar
    16     8     9   ar
    17     9    10   ar
    18    10     2   ar
    19     9     4   ar
    20    20    15   ar
    21     1    11    1
    22     1    12    1
@<TRIPOS>MOLECULE
*****
 20 22 0 0 0
SMALL
GASTEIGER

@<TRIPOS>ATOM
      1 N         142.5260  142.8366  171.4477 N.pl3   1  UNL1       -0.3375
      2 C         141.7737  142.2697  170.2804 C.ar    1  UNL1        0.1567
      3 N         141.8773  142.7306  168.8568 N.ar    1  UNL1       -0.2245
      4 C         140.9533  141.8880  168.0283 C.ar    1  UNL1        0.0894
      5 C         140.6391  141.8879  166.5616 C.ar    1  UNL1        0.0228
      6 C         139.6503  140.9060  166.0066 C.ar    1  UNL1        0.0385
      7 C         138.9757  139.9243  166.9182 C.ar    1  UNL1        0.1397
      8 C         139.2899  139.9244  168.3849 C.ar    1  UNL1        0.0450
      9 C         140.2787  140.9063  168.9400 C.ar    1  UNL1        0.0527
     10 S         140.7857  141.1422  170.3318 S.2     1  UNL1       -0.0519
     11 H         143.1564  143.5807  171.3126 H       1  UNL1        0.1442
     12 H         142.3895  142.4647  172.3490 H       1  UNL1        0.1442
     13 O         137.9868  138.9424  166.3631 O.3     1  UNL1       -0.4706
     14 C         138.4667  137.6617  165.7470 C.3     1  UNL1        0.2320
     15 C         139.3515  137.6971  164.5363 C.ar    1  UNL1        0.0212
     16 C         138.7528  137.8940  163.1752 C.ar    1  UNL1       -0.0007
     17 C         139.6376  137.9294  161.9646 C.ar    1  UNL1       -0.0002
     18 C         141.1213  137.7680  162.1151 C.ar    1  UNL1       -0.0000
     19 C         141.7201  137.5712  163.4762 C.ar    1  UNL1       -0.0002
     20 C         140.8352  137.5357  164.6868 C.ar    1  UNL1       -0.0007
@<TRIPOS>BOND
     1     1     2    1
     2     2     3   ar
     3     3     4   ar
     4     4     5   ar
     5     5     6   ar
     6     6     7   ar
     7     7    13    1
     8    13    14    1
     9    14    15    1
    10    15    16   ar
    11    16    17   ar
    12    17    18   ar
    13    18    19   ar
    14    19    20   ar
    15     7     8   ar
    16     8     9   ar
    17     9    10   ar
    18    10     2   ar
    19     9     4   ar
    20    20    15   ar
    21     1    11    1
    22     1    12    1
@<TRIPOS>MOLECULE
*****
 20 22 0 0 0
SMALL
GASTEIGER

@<TRIPOS>ATOM
      1 N         140.3384  146.4255  162.4543 N.pl3   1  UNL1       -0.3375
      2 C         139.7619  145.0890  162.8168 C.ar    1  UNL1        0.1567
      3 N         138.9124  144.2258  161.9318 N.ar    1  UNL1       -0.2245
      4 C         138.5592  142.9843  162.6959 C.ar    1  UNL1        0.0894
      5 C         137.7443  141.7790  162.3312 C.ar    1  UNL1        0.0228
      6 C         137.5607  140.6695  163.3238 C.ar    1  UNL1        0.0385
      7 C         138.1919  140.7654  164.6811 C.ar    1  UNL1        0.1397
      8 C         139.0068  141.9707  165.0458 C.ar    1  UNL1        0.0450
      9 C         139.1904  143.0802  164.0533 C.ar    1  UNL1        0.0527
     10 S         139.9337  144.3809  164.1279 S.2     1  UNL1       -0.0519
     11 H         140.1688  146.8096  161.5638 H       1  UNL1        0.1442
     12 H         140.8864  146.9186  163.1068 H       1  UNL1        0.1442
     13 O         138.0082  139.6558  165.6737 O.3     1  UNL1       -0.4706
     14 C         138.6388  138.3173  165.4276 C.3     1  UNL1        0.2320
     15 C         139.9172  138.2223  164.6485 C.ar    1  UNL1        0.0212
     16 C         141.2147  138.6250  165.2844 C.ar    1  UNL1       -0.0007
     17 C         142.4930  138.5300  164.5054 C.ar    1  UNL1       -0.0002
     18 C         142.4738  138.0324  163.0905 C.ar    1  UNL1       -0.0000
     19 C         141.1764  137.6297  162.4546 C.ar    1  UNL1       -0.0002
     20 C         139.8981  137.7246  163.2336 C.ar    1  UNL1       -0.0007
@<TRIPOS>BOND
     1     1     2    1
     2     2     3   ar
     3     3     4   ar
     4     4     5   ar
     5     5     6   ar
     6     6     7   ar
     7     7    13    1
     8    13    14    1
     9    14    15    1
    10    15    16   ar
    11    16    17   ar
    12    17    18   ar
    13    18    19   ar
    14    19    20   ar
    15     7     8   ar
    16     8     9   ar
    17     9    10   ar
    18    10     2   ar
    19     9     4   ar
    20    20    15   ar
    21     1    11    1
    22     1    12    1
