@<TRIPOS>MOLECULE
*****
 40 45 0 0 0
SMALL
GASTEIGER

@<TRIPOS>ATOM
      1 C         142.8080  135.8001  157.6797 C.ar    1  UNL1        0.2400
      2 N         142.2377  135.3373  156.3719 N.ar    1  UNL1       -0.2090
      3 C         141.5191  136.3075  155.4818 C.ar    1  UNL1        0.1036
      4 C         141.1941  137.8102  155.5981 C.ar    1  UNL1        0.0383
      5 C         141.9527  137.2728  156.7753 C.ar    1  UNL1        0.0236
      6 C         142.6598  137.2331  158.0975 C.ar    1  UNL1        0.1179
      7 N         143.2301  137.6958  159.4054 N.pl3   1  UNL1       -0.2104
      8 S         143.5949  138.6053  160.5411 S.O2    1  UNL1        0.0737
      9 O         144.3292  138.3962  161.8323 O.2     1  UNL1       -0.1499
     10 O         144.0614  137.1932  160.7373 O.2     1  UNL1       -0.1499
     11 C         143.7102  139.8517  161.3678 C.ar    1  UNL1        0.1253
     12 C         144.4173  139.8120  162.6900 C.ar    1  UNL1        0.0202
     13 C         144.5325  141.0583  163.5166 C.ar    1  UNL1        0.0015
     14 C         143.9406  142.3444  163.0209 C.ar    1  UNL1        0.0046
     15 C         143.2335  142.3841  161.6987 C.ar    1  UNL1        0.0547
     16 C         143.1183  141.1378  160.8721 C.ar    1  UNL1        0.0247
     17 C         142.5762  144.0175  161.2484 C.2     1  UNL1        0.2461
     18 O         142.9410  144.9270  162.3841 O.2     1  UNL1       -0.2701
     19 N         141.8576  144.9877  160.3583 N.am    1  UNL1       -0.2969
     20 C         141.0991  145.5251  159.1811 C.3     1  UNL1        0.1166
     21 C         140.3919  145.5648  157.8588 C.ar    1  UNL1       -0.0026
     22 C         139.6873  146.6854  157.0684 C.ar    1  UNL1       -0.0026
     23 C         138.9801  146.7251  155.7461 C.ar    1  UNL1       -0.0003
     24 C         138.8649  145.4787  154.9195 C.ar    1  UNL1        0.0000
     25 C         139.4568  144.1926  155.4152 C.ar    1  UNL1        0.0013
     26 C         139.8216  145.1021  156.5509 C.ar    1  UNL1       -0.0026
     27 C         139.3416  142.9463  154.5886 C.ar    1  UNL1        0.0207
     28 C         138.6230  143.9165  153.6985 C.ar    1  UNL1        0.0222
     29 C         138.0526  143.4537  152.3906 C.ar    1  UNL1        0.0989
     30 N         138.2008  142.0208  151.9728 N.ar    1  UNL1       -0.2423
     31 C         138.9195  141.0505  152.8630 C.ar    1  UNL1        0.0989
     32 C         139.1746  139.4206  152.5521 C.ar    1  UNL1        0.0222
     33 C         139.8791  138.3929  153.3873 C.ar    1  UNL1        0.0207
     34 C         140.4755  138.7804  154.7080 C.ar    1  UNL1        0.0829
     35 N         139.8836  140.0665  154.2123 N.ar    1  UNL1       -0.2438
     36 C         139.4898  141.5132  154.1709 C.ar    1  UNL1        0.0988
     37 H         143.6186  136.8518  159.7307 H       1  UNL1        0.1739
     38 H         141.9333  145.8057  160.9008 H       1  UNL1        0.1501
     39 C         144.0857  133.5605  157.9988 C.3     1  UNL1        0.2543
     40 O         143.5266  134.8299  158.5698 O.3     1  UNL1       -0.4553
@<TRIPOS>BOND
     1    39    40    1
     2    40     1    1
     3     1     2   ar
     4     2     3   ar
     5     3     4   ar
     6     4     5   ar
     7     5     6   ar
     8     6     7    1
     9     7     8    1
    10     8     9    2
    11     8    10    2
    12     8    11    1
    13    11    12   ar
    14    12    13   ar
    15    13    14   ar
    16    14    15   ar
    17    15    16   ar
    18    15    17    1
    19    17    18    2
    20    17    19   am
    21    19    20    1
    22    20    21    1
    23    21    22   ar
    24    22    23   ar
    25    23    24   ar
    26    24    25   ar
    27    25    26   ar
    28    25    27    1
    29    27    28   ar
    30    28    29   ar
    31    29    30   ar
    32    30    31   ar
    33    31    32   ar
    34    32    33   ar
    35    33    34   ar
    36    34    35   ar
    37    35    36   ar
    38     6     1   ar
    39    16    11   ar
    40    26    21   ar
    41    36    27   ar
    42    34     4    1
    43    36    31   ar
    44     7    37    1
    45    19    38    1
@<TRIPOS>MOLECULE
*****
 40 45 0 0 0
SMALL
GASTEIGER

@<TRIPOS>ATOM
      1 C         140.1969  145.6927  155.0357 C.ar    1  UNL1        0.2400
      2 N         139.8072  146.8108  155.9565 N.ar    1  UNL1       -0.2090
      3 C         139.8458  146.6070  157.4420 C.ar    1  UNL1        0.1036
      4 C         140.2260  145.4105  158.3369 C.ar    1  UNL1        0.0383
      5 C         140.3512  145.1201  156.8706 C.ar    1  UNL1        0.0236
      6 C         140.6252  144.3707  155.6005 C.ar    1  UNL1        0.1179
      7 N         141.0149  143.2526  154.6797 N.pl3   1  UNL1       -0.2104
      8 S         141.4734  141.9006  154.2194 S.O2    1  UNL1        0.0737
      9 O         141.7006  141.2966  152.8653 O.2     1  UNL1       -0.1499
     10 O         141.1816  142.8449  153.0911 O.2     1  UNL1       -0.1499
     11 C         141.9452  140.4777  154.2749 C.ar    1  UNL1        0.1253
     12 C         142.2192  139.7283  153.0048 C.ar    1  UNL1        0.0202
     13 C         142.6910  138.3056  153.0604 C.ar    1  UNL1        0.0015
     14 C         142.8889  137.6322  154.3861 C.ar    1  UNL1        0.0046
     15 C         142.6149  138.3817  155.6562 C.ar    1  UNL1        0.0547
     16 C         142.1431  139.8044  155.6006 C.ar    1  UNL1        0.0247
     17 C         142.9046  137.4208  157.1714 C.2     1  UNL1        0.2461
     18 O         143.3630  136.0688  156.7111 O.2     1  UNL1       -0.2701
     19 N         142.9432  137.2172  158.6570 N.am    1  UNL1       -0.2969
     20 C         142.8180  137.5074  160.1233 C.3     1  UNL1        0.1166
     21 C         142.5439  138.2569  161.3934 C.ar    1  UNL1       -0.0026
     22 C         142.6395  137.8815  162.8857 C.ar    1  UNL1       -0.0026
     23 C         142.3655  138.6310  164.1559 C.ar    1  UNL1       -0.0003
     24 C         141.8936  140.0538  164.1003 C.ar    1  UNL1        0.0000
     25 C         141.6958  140.7271  162.7745 C.ar    1  UNL1        0.0013
     26 C         142.1542  139.3751  162.3142 C.ar    1  UNL1       -0.0026
     27 C         141.2240  142.1498  162.7189 C.ar    1  UNL1        0.0207
     28 C         141.2626  141.9461  164.2046 C.ar    1  UNL1        0.0222
     29 C         140.8729  143.0643  165.1253 C.ar    1  UNL1        0.0989
     30 N         140.4445  144.3862  164.5606 N.ar    1  UNL1       -0.2423
     31 C         140.4059  144.5899  163.0749 C.ar    1  UNL1        0.0989
     32 C         139.9539  145.9967  162.2780 C.ar    1  UNL1        0.0222
     33 C         139.8900  146.2759  160.8056 C.ar    1  UNL1        0.0207
     34 C         140.2646  145.2067  159.8225 C.ar    1  UNL1        0.0829
     35 N         140.4625  144.5334  161.1482 N.ar    1  UNL1       -0.2438
     36 C         140.7956  143.4718  162.1541 C.ar    1  UNL1        0.0988
     37 H         140.8851  143.6945  153.8096 H       1  UNL1        0.1739
     38 H         143.2528  136.2833  158.6935 H       1  UNL1        0.1501
     39 C         141.2946  146.5892  152.8582 C.3     1  UNL1        0.2543
     40 O         140.1583  145.8964  153.5501 O.3     1  UNL1       -0.4553
@<TRIPOS>BOND
     1    39    40    1
     2    40     1    1
     3     1     2   ar
     4     2     3   ar
     5     3     4   ar
     6     4     5   ar
     7     5     6   ar
     8     6     7    1
     9     7     8    1
    10     8     9    2
    11     8    10    2
    12     8    11    1
    13    11    12   ar
    14    12    13   ar
    15    13    14   ar
    16    14    15   ar
    17    15    16   ar
    18    15    17    1
    19    17    18    2
    20    17    19   am
    21    19    20    1
    22    20    21    1
    23    21    22   ar
    24    22    23   ar
    25    23    24   ar
    26    24    25   ar
    27    25    26   ar
    28    25    27    1
    29    27    28   ar
    30    28    29   ar
    31    29    30   ar
    32    30    31   ar
    33    31    32   ar
    34    32    33   ar
    35    33    34   ar
    36    34    35   ar
    37    35    36   ar
    38     6     1   ar
    39    16    11   ar
    40    26    21   ar
    41    36    27   ar
    42    34     4    1
    43    36    31   ar
    44     7    37    1
    45    19    38    1
@<TRIPOS>MOLECULE
*****
 40 45 0 0 0
SMALL
GASTEIGER

@<TRIPOS>ATOM
      1 C         142.8150  137.0576  155.5387 C.ar    1  UNL1        0.2400
      2 N         143.0760  136.0979  156.6616 N.ar    1  UNL1       -0.2090
      3 C         142.9187  136.5471  158.0840 C.ar    1  UNL1        0.1036
      4 C         142.5146  137.8861  158.7328 C.ar    1  UNL1        0.0383
      5 C         142.5283  137.9317  157.2336 C.ar    1  UNL1        0.0236
      6 C         142.3967  138.4666  155.8384 C.ar    1  UNL1        0.1179
      7 N         142.1357  139.4264  154.7156 N.pl3   1  UNL1       -0.2104
      8 S         141.7768  140.6952  154.0005 S.O2    1  UNL1        0.0737
      9 O         141.6927  141.0714  152.5509 O.2     1  UNL1       -0.1499
     10 O         142.1237  139.5684  153.0732 O.2     1  UNL1       -0.1499
     11 C         141.3632  142.1201  153.7795 C.ar    1  UNL1        0.1253
     12 C         141.2316  142.6550  152.3843 C.ar    1  UNL1        0.0202
     13 C         140.8181  144.0798  152.1633 C.ar    1  UNL1        0.0015
     14 C         140.5361  144.9696  153.3374 C.ar    1  UNL1        0.0046
     15 C         140.6677  144.4347  154.7326 C.ar    1  UNL1        0.0547
     16 C         141.0812  143.0099  154.9536 C.ar    1  UNL1        0.0247
     17 C         140.2903  145.6421  156.0374 C.2     1  UNL1        0.2461
     18 O         139.9314  146.9109  155.3224 O.2     1  UNL1       -0.2701
     19 N         140.1330  146.0913  157.4599 N.am    1  UNL1       -0.2969
     20 C         140.1193  146.0457  158.9591 C.3     1  UNL1        0.1166
     21 C         140.2509  145.5108  160.3543 C.ar    1  UNL1       -0.0026
     22 C         140.0437  146.1319  161.7501 C.ar    1  UNL1       -0.0026
     23 C         140.1753  145.5969  163.1454 C.ar    1  UNL1       -0.0003
     24 C         140.5889  144.1721  163.3664 C.ar    1  UNL1        0.0000
     25 C         140.8708  143.2822  162.1922 C.ar    1  UNL1        0.0013
     26 C         140.5119  144.5510  161.4772 C.ar    1  UNL1       -0.0026
     27 C         141.2844  141.8574  162.4132 C.ar    1  UNL1        0.0207
     28 C         141.1271  142.3066  163.8358 C.ar    1  UNL1        0.0222
     29 C         141.3881  141.3468  164.9586 C.ar    1  UNL1        0.0989
     30 N         141.8064  139.9379  164.6590 N.ar    1  UNL1       -0.2423
     31 C         141.9637  139.4887  163.2364 C.ar    1  UNL1        0.0989
     32 C         142.4218  137.9568  162.7248 C.ar    1  UNL1        0.0222
     33 C         142.6000  137.4346  161.3299 C.ar    1  UNL1        0.0207
     34 C         142.3572  138.3354  160.1553 C.ar    1  UNL1        0.0829
     35 N         142.0753  139.2252  161.3294 N.ar    1  UNL1       -0.2438
     36 C         141.7027  140.4484  162.1136 C.ar    1  UNL1        0.0988
     37 H         142.3208  138.8423  153.9449 H       1  UNL1        0.1739
     38 H         139.8616  147.0264  157.3148 H       1  UNL1        0.1501
     39 C         141.8612  135.8634  153.4378 C.3     1  UNL1        0.2543
     40 O         142.9723  136.6084  154.1163 O.3     1  UNL1       -0.4553
@<TRIPOS>BOND
     1    39    40    1
     2    40     1    1
     3     1     2   ar
     4     2     3   ar
     5     3     4   ar
     6     4     5   ar
     7     5     6   ar
     8     6     7    1
     9     7     8    1
    10     8     9    2
    11     8    10    2
    12     8    11    1
    13    11    12   ar
    14    12    13   ar
    15    13    14   ar
    16    14    15   ar
    17    15    16   ar
    18    15    17    1
    19    17    18    2
    20    17    19   am
    21    19    20    1
    22    20    21    1
    23    21    22   ar
    24    22    23   ar
    25    23    24   ar
    26    24    25   ar
    27    25    26   ar
    28    25    27    1
    29    27    28   ar
    30    28    29   ar
    31    29    30   ar
    32    30    31   ar
    33    31    32   ar
    34    32    33   ar
    35    33    34   ar
    36    34    35   ar
    37    35    36   ar
    38     6     1   ar
    39    16    11   ar
    40    26    21   ar
    41    36    27   ar
    42    34     4    1
    43    36    31   ar
    44     7    37    1
    45    19    38    1
@<TRIPOS>MOLECULE
*****
 40 45 0 0 0
SMALL
GASTEIGER

@<TRIPOS>ATOM
      1 C         139.2182  147.0086  156.8380 C.ar    1  UNL1        0.2400
      2 N         139.1011  146.9825  155.3428 N.ar    1  UNL1       -0.2090
      3 C         139.4702  145.7430  154.5831 C.ar    1  UNL1        0.1036
      4 C         139.9910  144.3558  155.0093 C.ar    1  UNL1        0.0383
      5 C         139.7633  145.2862  156.1637 C.ar    1  UNL1        0.0236
      6 C         139.7044  145.7951  157.5735 C.ar    1  UNL1        0.1179
      7 N         139.8215  145.8212  159.0687 N.pl3   1  UNL1       -0.2104
      8 S         140.1005  145.3613  160.4689 S.O2    1  UNL1        0.0737
      9 O         139.9835  146.0202  161.8113 O.2     1  UNL1       -0.1499
     10 O         139.6007  146.7737  160.3959 O.2     1  UNL1       -0.1499
     11 C         140.5076  144.4708  161.6054 C.ar    1  UNL1        0.1253
     12 C         140.4488  144.9798  163.0151 C.ar    1  UNL1        0.0202
     13 C         140.8559  144.0894  164.1515 C.ar    1  UNL1        0.0015
     14 C         141.3219  142.6900  163.8781 C.ar    1  UNL1        0.0046
     15 C         141.3808  142.1811  162.4683 C.ar    1  UNL1        0.0547
     16 C         140.9736  143.0715  161.3319 C.ar    1  UNL1        0.0247
     17 C         141.9665  140.4677  162.3133 C.2     1  UNL1        0.2461
     18 O         142.2455  140.0078  163.7135 O.2     1  UNL1       -0.2701
     19 N         142.3356  139.2282  161.5535 N.am    1  UNL1       -0.2969
     20 C         142.5634  138.2978  160.3992 C.3     1  UNL1        0.1166
     21 C         142.6222  137.7889  158.9894 C.ar    1  UNL1       -0.0026
     22 C         143.0405  136.4419  158.3668 C.ar    1  UNL1       -0.0026
     23 C         143.0993  135.9330  156.9569 C.ar    1  UNL1       -0.0003
     24 C         142.6922  136.8234  155.8206 C.ar    1  UNL1        0.0000
     25 C         142.2262  138.2227  156.0940 C.ar    1  UNL1        0.0013
     26 C         142.5051  137.7628  157.4942 C.ar    1  UNL1       -0.0026
     27 C         141.8190  139.1131  154.9576 C.ar    1  UNL1        0.0207
     28 C         142.1882  137.8735  154.1978 C.ar    1  UNL1        0.0222
     29 C         142.0710  137.8475  152.7026 C.ar    1  UNL1        0.0989
     30 N         141.5848  139.0609  151.9671 N.ar    1  UNL1       -0.2423
     31 C         141.2157  140.3006  152.7269 C.ar    1  UNL1        0.0989
     32 C         140.6571  141.7394  152.0665 C.ar    1  UNL1        0.0222
     33 C         140.2697  143.0140  152.7558 C.ar    1  UNL1        0.0207
     34 C         140.3601  143.1162  154.2497 C.ar    1  UNL1        0.0829
     35 N         140.8261  141.7169  153.9762 N.ar    1  UNL1       -0.2438
     36 C         141.3328  140.3267  154.2221 C.ar    1  UNL1        0.0988
     37 H         139.5157  146.7396  159.2481 H       1  UNL1        0.1739
     38 H         142.6029  138.6438  162.2994 H       1  UNL1        0.1501
     39 C         138.4599  149.4935  156.8576 C.3     1  UNL1        0.2543
     40 O         138.8491  148.2482  157.5976 O.3     1  UNL1       -0.4553
@<TRIPOS>BOND
     1    39    40    1
     2    40     1    1
     3     1     2   ar
     4     2     3   ar
     5     3     4   ar
     6     4     5   ar
     7     5     6   ar
     8     6     7    1
     9     7     8    1
    10     8     9    2
    11     8    10    2
    12     8    11    1
    13    11    12   ar
    14    12    13   ar
    15    13    14   ar
    16    14    15   ar
    17    15    16   ar
    18    15    17    1
    19    17    18    2
    20    17    19   am
    21    19    20    1
    22    20    21    1
    23    21    22   ar
    24    22    23   ar
    25    23    24   ar
    26    24    25   ar
    27    25    26   ar
    28    25    27    1
    29    27    28   ar
    30    28    29   ar
    31    29    30   ar
    32    30    31   ar
    33    31    32   ar
    34    32    33   ar
    35    33    34   ar
    36    34    35   ar
    37    35    36   ar
    38     6     1   ar
    39    16    11   ar
    40    26    21   ar
    41    36    27   ar
    42    34     4    1
    43    36    31   ar
    44     7    37    1
    45    19    38    1
@<TRIPOS>MOLECULE
*****
 40 45 0 0 0
SMALL
GASTEIGER

@<TRIPOS>ATOM
      1 C         137.9745  143.7482  153.7677 C.ar    1  UNL1        0.2400
      2 N         137.9240  145.0547  154.5028 N.ar    1  UNL1       -0.2090
      3 C         138.5814  145.1861  155.8446 C.ar    1  UNL1        0.1036
      4 C         139.3725  144.2083  156.7363 C.ar    1  UNL1        0.0383
      5 C         138.9045  143.5947  155.4500 C.ar    1  UNL1        0.0236
      6 C         138.6824  142.5731  154.3745 C.ar    1  UNL1        0.1179
      7 N         138.7328  141.2665  153.6393 N.pl3   1  UNL1       -0.2104
      8 S         139.0498  139.8327  153.3334 S.O2    1  UNL1        0.0737
      9 O         138.7412  138.9355  152.1716 O.2     1  UNL1       -0.1499
     10 O         138.2600  140.5102  152.2530 O.2     1  UNL1       -0.1499
     11 C         139.5952  138.4445  153.4934 C.ar    1  UNL1        0.1253
     12 C         139.3730  137.4228  152.4178 C.ar    1  UNL1        0.0202
     13 C         139.9183  136.0347  152.5779 C.ar    1  UNL1        0.0015
     14 C         140.6858  135.6682  153.8134 C.ar    1  UNL1        0.0046
     15 C         140.9080  136.6899  154.8890 C.ar    1  UNL1        0.0547
     16 C         140.3627  138.0780  154.7290 C.ar    1  UNL1        0.0247
     17 C         141.8555  136.0827  156.3160 C.2     1  UNL1        0.2461
     18 O         142.1726  134.6488  156.0100 O.2     1  UNL1       -0.2701
     19 N         142.5129  136.2142  157.6578 N.am    1  UNL1       -0.2969
     20 C         142.9809  136.8277  158.9441 C.3     1  UNL1        0.1166
     21 C         143.2031  137.8494  160.0197 C.ar    1  UNL1       -0.0026
     22 C         143.9262  137.8134  161.3808 C.ar    1  UNL1       -0.0026
     23 C         144.1484  138.8352  162.4564 C.ar    1  UNL1       -0.0003
     24 C         143.6030  140.2233  162.2963 C.ar    1  UNL1        0.0000
     25 C         142.8356  140.5898  161.0608 C.ar    1  UNL1        0.0013
     26 C         143.1526  139.1560  160.7548 C.ar    1  UNL1       -0.0026
     27 C         142.2902  141.9779  160.9007 C.ar    1  UNL1        0.0207
     28 C         142.9476  142.1095  162.2427 C.ar    1  UNL1        0.0222
     29 C         142.8971  143.4160  162.9777 C.ar    1  UNL1        0.0989
     30 N         142.1893  144.5911  162.3710 N.ar    1  UNL1       -0.2423
     31 C         141.5319  144.4596  161.0291 C.ar    1  UNL1        0.0989
     32 C         140.7018  145.6663  160.2086 C.ar    1  UNL1        0.0222
     33 C         140.0218  145.6120  158.8727 C.ar    1  UNL1        0.0207
     34 C         140.0299  144.3397  158.0781 C.ar    1  UNL1        0.0829
     35 N         140.7974  143.9732  159.3137 N.ar    1  UNL1       -0.2438
     36 C         141.5824  143.1530  160.2940 C.ar    1  UNL1        0.0988
     37 H         138.2291  141.5071  152.8284 H       1  UNL1        0.1739
     38 H         142.8708  135.3031  157.7628 H       1  UNL1        0.1501
     39 C         135.8383  143.3829  152.3348 C.3     1  UNL1        0.2543
     40 O         137.3171  143.6167  152.4259 O.3     1  UNL1       -0.4553
@<TRIPOS>BOND
     1    39    40    1
     2    40     1    1
     3     1     2   ar
     4     2     3   ar
     5     3     4   ar
     6     4     5   ar
     7     5     6   ar
     8     6     7    1
     9     7     8    1
    10     8     9    2
    11     8    10    2
    12     8    11    1
    13    11    12   ar
    14    12    13   ar
    15    13    14   ar
    16    14    15   ar
    17    15    16   ar
    18    15    17    1
    19    17    18    2
    20    17    19   am
    21    19    20    1
    22    20    21    1
    23    21    22   ar
    24    22    23   ar
    25    23    24   ar
    26    24    25   ar
    27    25    26   ar
    28    25    27    1
    29    27    28   ar
    30    28    29   ar
    31    29    30   ar
    32    30    31   ar
    33    31    32   ar
    34    32    33   ar
    35    33    34   ar
    36    34    35   ar
    37    35    36   ar
    38     6     1   ar
    39    16    11   ar
    40    26    21   ar
    41    36    27   ar
    42    34     4    1
    43    36    31   ar
    44     7    37    1
    45    19    38    1
@<TRIPOS>MOLECULE
*****
 40 45 0 0 0
SMALL
GASTEIGER

@<TRIPOS>ATOM
      1 C         142.9269  143.4739  161.8200 C.ar    1  UNL1        0.2400
      2 N         143.5956  142.3743  162.5904 N.ar    1  UNL1       -0.2090
      3 C         143.6556  140.9882  162.0202 C.ar    1  UNL1        0.1036
      4 C         143.1469  140.3608  160.7069 C.ar    1  UNL1        0.0383
      5 C         142.8382  141.8239  160.8259 C.ar    1  UNL1        0.0236
      6 C         142.3182  143.1875  160.4793 C.ar    1  UNL1        0.1179
      7 N         141.6495  144.2871  159.7088 N.pl3   1  UNL1       -0.2104
      8 S         140.9127  144.9902  158.6075 S.O2    1  UNL1        0.0737
      9 O         140.4573  146.4062  158.4141 O.2     1  UNL1       -0.1499
     10 O         141.2678  145.8903  159.7537 O.2     1  UNL1       -0.1499
     11 C         140.1968  145.2119  157.3081 C.ar    1  UNL1        0.1253
     12 C         139.6768  146.5755  156.9615 C.ar    1  UNL1        0.0202
     13 C         138.9609  146.7971  155.6621 C.ar    1  UNL1        0.0015
     14 C         138.7651  145.6552  154.7094 C.ar    1  UNL1        0.0046
     15 C         139.2851  144.2916  155.0560 C.ar    1  UNL1        0.0547
     16 C         140.0010  144.0700  156.3554 C.ar    1  UNL1        0.0247
     17 C         138.9643  143.0235  153.7944 C.2     1  UNL1        0.2461
     18 O         138.2275  143.7266  152.6930 O.2     1  UNL1       -0.2701
     19 N         139.0243  141.6374  153.2242 N.am    1  UNL1       -0.2969
     20 C         139.3330  140.1744  153.1051 C.3     1  UNL1        0.1166
     21 C         139.8530  138.8108  153.4518 C.ar    1  UNL1       -0.0026
     22 C         139.8267  137.4515  152.7248 C.ar    1  UNL1       -0.0026
     23 C         140.3468  136.0878  153.0715 C.ar    1  UNL1       -0.0003
     24 C         141.0627  135.8662  154.3709 C.ar    1  UNL1        0.0000
     25 C         141.2585  137.0081  155.3236 C.ar    1  UNL1        0.0013
     26 C         140.5217  137.7111  154.2223 C.ar    1  UNL1       -0.0026
     27 C         141.9743  136.7864  156.6230 C.ar    1  UNL1        0.0207
     28 C         142.0344  135.4002  156.0527 C.ar    1  UNL1        0.0222
     29 C         142.7031  134.3007  156.8232 C.ar    1  UNL1        0.0989
     30 N         143.3118  134.5870  158.1639 N.ar    1  UNL1       -0.2423
     31 C         143.2517  135.9732  158.7341 C.ar    1  UNL1        0.0989
     32 C         143.8779  136.4660  160.2118 C.ar    1  UNL1        0.0222
     33 C         143.8576  137.8248  160.8467 C.ar    1  UNL1        0.0207
     34 C         143.2069  138.9748  160.1367 C.ar    1  UNL1        0.0829
     35 N         143.0111  137.8329  159.1839 N.ar    1  UNL1       -0.2438
     36 C         142.5830  137.0729  157.9637 C.ar    1  UNL1        0.0988
     37 H         141.7780  145.0366  160.3342 H       1  UNL1        0.1739
     38 H         138.5545  141.7829  152.3714 H       1  UNL1        0.1501
     39 C         142.0025  145.1436  163.5829 C.3     1  UNL1        0.2543
     40 O         142.8668  144.8600  162.3902 O.3     1  UNL1       -0.4553
@<TRIPOS>BOND
     1    39    40    1
     2    40     1    1
     3     1     2   ar
     4     2     3   ar
     5     3     4   ar
     6     4     5   ar
     7     5     6   ar
     8     6     7    1
     9     7     8    1
    10     8     9    2
    11     8    10    2
    12     8    11    1
    13    11    12   ar
    14    12    13   ar
    15    13    14   ar
    16    14    15   ar
    17    15    16   ar
    18    15    17    1
    19    17    18    2
    20    17    19   am
    21    19    20    1
    22    20    21    1
    23    21    22   ar
    24    22    23   ar
    25    23    24   ar
    26    24    25   ar
    27    25    26   ar
    28    25    27    1
    29    27    28   ar
    30    28    29   ar
    31    29    30   ar
    32    30    31   ar
    33    31    32   ar
    34    32    33   ar
    35    33    34   ar
    36    34    35   ar
    37    35    36   ar
    38     6     1   ar
    39    16    11   ar
    40    26    21   ar
    41    36    27   ar
    42    34     4    1
    43    36    31   ar
    44     7    37    1
    45    19    38    1
@<TRIPOS>MOLECULE
*****
 40 45 0 0 0
SMALL
GASTEIGER

@<TRIPOS>ATOM
      1 C         142.8761  140.1419  154.7726 C.ar    1  UNL1        0.2400
      2 N         143.3877  138.8473  155.3314 N.ar    1  UNL1       -0.2090
      3 C         143.3199  138.5886  156.8073 C.ar    1  UNL1        0.1036
      4 C         142.8013  139.4114  158.0037 C.ar    1  UNL1        0.0383
      5 C         142.6496  140.1148  156.6875 C.ar    1  UNL1        0.0236
      6 C         142.2967  141.1778  155.6899 C.ar    1  UNL1        0.1179
      7 N         141.7851  142.4725  155.1311 N.pl3   1  UNL1       -0.2104
      8 S         141.1766  143.8425  155.0787 S.O2    1  UNL1        0.0737
      9 O         140.8871  144.7980  153.9593 O.2     1  UNL1       -0.1499
     10 O         141.5793  143.3193  153.7318 O.2     1  UNL1       -0.1499
     11 C         140.5444  145.1227  155.5388 C.ar    1  UNL1        0.1253
     12 C         140.1915  146.1857  154.5411 C.ar    1  UNL1        0.0202
     13 C         139.5595  147.4658  155.0013 C.ar    1  UNL1        0.0015
     14 C         139.2803  147.6829  156.4590 C.ar    1  UNL1        0.0046
     15 C         139.6332  146.6198  157.4566 C.ar    1  UNL1        0.0547
     16 C         140.2653  145.3397  156.9965 C.ar    1  UNL1        0.0247
     17 C         139.2291  147.0422  159.1774 C.2     1  UNL1        0.2461
     18 O         138.6206  148.4122  159.1249 O.2     1  UNL1       -0.2701
     19 N         139.1613  146.7834  160.6533 N.am    1  UNL1       -0.2969
     20 C         139.3130  146.0801  161.9695 C.3     1  UNL1        0.1166
     21 C         139.6660  145.0170  162.9671 C.ar    1  UNL1       -0.0026
     22 C         139.5219  144.9127  164.4985 C.ar    1  UNL1       -0.0026
     23 C         139.8749  143.8495  165.4962 C.ar    1  UNL1       -0.0003
     24 C         140.5070  142.5694  165.0361 C.ar    1  UNL1        0.0000
     25 C         140.7861  142.3523  163.5783 C.ar    1  UNL1        0.0013
     26 C         140.1776  143.7223  163.5259 C.ar    1  UNL1       -0.0026
     27 C         141.4182  141.0722  163.1182 C.ar    1  UNL1        0.0207
     28 C         141.3504  140.8134  164.5942 C.ar    1  UNL1        0.0222
     29 C         141.8620  139.5188  165.1529 C.ar    1  UNL1        0.0989
     30 N         142.4414  138.4829  164.2358 N.ar    1  UNL1       -0.2423
     31 C         142.5092  138.7417  162.7597 C.ar    1  UNL1        0.0989
     32 C         143.1227  137.6980  161.5968 C.ar    1  UNL1        0.0222
     33 C         143.2243  137.8840  160.1118 C.ar    1  UNL1        0.0207
     34 C         142.7335  139.1527  159.4796 C.ar    1  UNL1        0.0829
     35 N         142.4544  139.3697  160.9373 N.ar    1  UNL1       -0.2438
     36 C         141.9976  140.0363  162.2010 C.ar    1  UNL1        0.0988
     37 H         141.9683  142.3300  154.1744 H       1  UNL1        0.1739
     38 H         138.7465  147.6236  160.9553 H       1  UNL1        0.1501
     39 C         144.1822  140.9967  152.6958 C.3     1  UNL1        0.2543
     40 O         142.9439  140.4007  153.2967 O.3     1  UNL1       -0.4553
@<TRIPOS>BOND
     1    39    40    1
     2    40     1    1
     3     1     2   ar
     4     2     3   ar
     5     3     4   ar
     6     4     5   ar
     7     5     6   ar
     8     6     7    1
     9     7     8    1
    10     8     9    2
    11     8    10    2
    12     8    11    1
    13    11    12   ar
    14    12    13   ar
    15    13    14   ar
    16    14    15   ar
    17    15    16   ar
    18    15    17    1
    19    17    18    2
    20    17    19   am
    21    19    20    1
    22    20    21    1
    23    21    22   ar
    24    22    23   ar
    25    23    24   ar
    26    24    25   ar
    27    25    26   ar
    28    25    27    1
    29    27    28   ar
    30    28    29   ar
    31    29    30   ar
    32    30    31   ar
    33    31    32   ar
    34    32    33   ar
    35    33    34   ar
    36    34    35   ar
    37    35    36   ar
    38     6     1   ar
    39    16    11   ar
    40    26    21   ar
    41    36    27   ar
    42    34     4    1
    43    36    31   ar
    44     7    37    1
    45    19    38    1
@<TRIPOS>MOLECULE
*****
 40 45 0 0 0
SMALL
GASTEIGER

@<TRIPOS>ATOM
      1 C         139.7442  145.3553  162.2304 C.ar    1  UNL1        0.2400
      2 N         139.4243  146.6119  161.4764 N.ar    1  UNL1       -0.2090
      3 C         139.6178  146.6645  159.9899 C.ar    1  UNL1        0.1036
      4 C         140.1139  145.6400  158.9500 C.ar    1  UNL1        0.0383
      5 C         140.0966  145.1047  160.3511 C.ar    1  UNL1        0.0236
      6 C         140.2577  144.1512  161.4978 C.ar    1  UNL1        0.1179
      7 N         140.5776  142.8946  162.2518 N.pl3   1  UNL1       -0.2104
      8 S         141.0179  141.4864  162.5221 S.O2    1  UNL1        0.0737
      9 O         141.1206  140.6618  163.7709 O.2     1  UNL1       -0.1499
     10 O         140.5918  142.2231  163.7573 O.2     1  UNL1       -0.1499
     11 C         141.5253  140.0964  162.2762 C.ar    1  UNL1        0.1253
     12 C         141.6864  139.1429  163.4229 C.ar    1  UNL1        0.0202
     13 C         142.1938  137.7530  163.1769 C.ar    1  UNL1        0.0015
     14 C         142.5402  137.3165  161.7843 C.ar    1  UNL1        0.0046
     15 C         142.3792  138.2700  160.6376 C.ar    1  UNL1        0.0547
     16 C         141.8717  139.6599  160.8835 C.ar    1  UNL1        0.0247
     17 C         142.8427  137.5829  159.0202 C.2     1  UNL1        0.2461
     18 O         143.2830  136.1747  159.2905 O.2     1  UNL1       -0.2701
     19 N         143.0362  137.6356  157.5337 N.am    1  UNL1       -0.2969
     20 C         143.0535  138.1708  156.1326 C.3     1  UNL1        0.1166
     21 C         142.8924  139.1244  154.9858 C.ar    1  UNL1       -0.0026
     22 C         143.1472  139.0092  153.4696 C.ar    1  UNL1       -0.0026
     23 C         142.9861  139.9628  152.3229 C.ar    1  UNL1       -0.0003
     24 C         142.4787  141.3527  152.5689 C.ar    1  UNL1        0.0000
     25 C         142.1323  141.7892  153.9615 C.ar    1  UNL1        0.0013
     26 C         142.5725  140.3810  154.2318 C.ar    1  UNL1       -0.0026
     27 C         141.6248  143.1791  154.2075 C.ar    1  UNL1        0.0207
     28 C         141.8183  143.2318  152.7209 C.ar    1  UNL1        0.0222
     29 C         141.4984  144.4884  151.9669 C.ar    1  UNL1        0.0989
     30 N         140.9849  145.6925  152.6994 N.ar    1  UNL1       -0.2423
     31 C         140.7914  145.6398  154.1860 C.ar    1  UNL1        0.0989
     32 C         140.2290  146.8878  155.1580 C.ar    1  UNL1        0.0222
     33 C         140.0099  146.9117  156.6417 C.ar    1  UNL1        0.0207
     34 C         140.3074  145.6926  157.4635 C.ar    1  UNL1        0.0829
     35 N         140.6538  145.2561  156.0708 N.ar    1  UNL1       -0.2438
     36 C         141.1113  144.3832  154.9400 C.ar    1  UNL1        0.0988
     37 H         140.3502  143.1811  163.1659 H       1  UNL1        0.1739
     38 H         143.3692  136.7233  157.3723 H       1  UNL1        0.1501
     39 C         138.3379  144.6334  164.2922 C.3     1  UNL1        0.2543
     40 O         139.5507  145.3027  163.7169 O.3     1  UNL1       -0.4553
@<TRIPOS>BOND
     1    39    40    1
     2    40     1    1
     3     1     2   ar
     4     2     3   ar
     5     3     4   ar
     6     4     5   ar
     7     5     6   ar
     8     6     7    1
     9     7     8    1
    10     8     9    2
    11     8    10    2
    12     8    11    1
    13    11    12   ar
    14    12    13   ar
    15    13    14   ar
    16    14    15   ar
    17    15    16   ar
    18    15    17    1
    19    17    18    2
    20    17    19   am
    21    19    20    1
    22    20    21    1
    23    21    22   ar
    24    22    23   ar
    25    23    24   ar
    26    24    25   ar
    27    25    26   ar
    28    25    27    1
    29    27    28   ar
    30    28    29   ar
    31    29    30   ar
    32    30    31   ar
    33    31    32   ar
    34    32    33   ar
    35    33    34   ar
    36    34    35   ar
    37    35    36   ar
    38     6     1   ar
    39    16    11   ar
    40    26    21   ar
    41    36    27   ar
    42    34     4    1
    43    36    31   ar
    44     7    37    1
    45    19    38    1
@<TRIPOS>MOLECULE
*****
 40 45 0 0 0
SMALL
GASTEIGER

@<TRIPOS>ATOM
      1 C         143.9444  140.5034  162.1372 C.ar    1  UNL1        0.2400
      2 N         144.4476  139.1186  162.4183 N.ar    1  UNL1       -0.2090
      3 C         144.1891  138.0133  161.4378 C.ar    1  UNL1        0.1036
      4 C         143.4611  137.9512  160.0801 C.ar    1  UNL1        0.0383
      5 C         143.4542  139.3186  160.6969 C.ar    1  UNL1        0.0236
      6 C         143.1828  140.7829  160.8755 C.ar    1  UNL1        0.1179
      7 N         142.6797  142.1678  160.5944 N.pl3   1  UNL1       -0.2104
      8 S         142.0054  143.3060  159.8874 S.O2    1  UNL1        0.0737
      9 O         141.8200  144.7575  160.2171 O.2     1  UNL1       -0.1499
     10 O         142.6226  143.7015  161.1961 O.2     1  UNL1       -0.1499
     11 C         141.2414  144.0604  158.8399 C.ar    1  UNL1        0.1253
     12 C         140.9700  145.5248  159.0184 C.ar    1  UNL1        0.0202
     13 C         140.2060  146.2791  157.9709 C.ar    1  UNL1        0.0015
     14 C         139.7135  145.5691  156.7449 C.ar    1  UNL1        0.0046
     15 C         139.9848  144.1047  156.5663 C.ar    1  UNL1        0.0547
     16 C         140.7488  143.3504  157.6138 C.ar    1  UNL1        0.0247
     17 C         139.3199  143.4008  155.0284 C.2     1  UNL1        0.2461
     18 O         138.6457  144.5390  154.3214 O.2     1  UNL1       -0.2701
     19 N         139.0615  142.2954  154.0479 N.am    1  UNL1       -0.2969
     20 C         139.0684  140.9282  153.4311 C.3     1  UNL1        0.1166
     21 C         139.3398  139.4637  153.2526 C.ar    1  UNL1       -0.0026
     22 C         138.9892  138.4494  152.1457 C.ar    1  UNL1       -0.0026
     23 C         139.2607  136.9850  151.9671 C.ar    1  UNL1       -0.0003
     24 C         140.0246  136.2306  153.0146 C.ar    1  UNL1        0.0000
     25 C         140.5172  136.9407  154.2407 C.ar    1  UNL1        0.0013
     26 C         139.8430  138.0789  153.5337 C.ar    1  UNL1       -0.0026
     27 C         141.2812  136.1863  155.2882 C.ar    1  UNL1        0.0207
     28 C         141.0228  135.0809  154.3076 C.ar    1  UNL1        0.0222
     29 C         141.5260  133.6961  154.5888 C.ar    1  UNL1        0.0989
     30 N         142.2875  133.4165  155.8505 N.ar    1  UNL1       -0.2423
     31 C         142.5459  134.5220  156.8310 C.ar    1  UNL1        0.0989
     32 C         143.3762  134.3854  158.2838 C.ar    1  UNL1        0.0222
     33 C         143.6735  135.4374  159.3108 C.ar    1  UNL1        0.0207
     34 C         143.2027  136.8459  159.0996 C.ar    1  UNL1        0.0829
     35 N         142.7101  136.1359  157.8736 N.ar    1  UNL1       -0.2438
     36 C         142.0428  135.9068  156.5499 C.ar    1  UNL1        0.0988
     37 H         143.0030  142.6338  161.3991 H       1  UNL1        0.1739
     38 H         138.5601  142.7906  153.3604 H       1  UNL1        0.1501
     39 C         145.5851  141.8229  163.6594 C.3     1  UNL1        0.2543
     40 O         144.2028  141.6087  163.1177 O.3     1  UNL1       -0.4553
@<TRIPOS>BOND
     1    39    40    1
     2    40     1    1
     3     1     2   ar
     4     2     3   ar
     5     3     4   ar
     6     4     5   ar
     7     5     6   ar
     8     6     7    1
     9     7     8    1
    10     8     9    2
    11     8    10    2
    12     8    11    1
    13    11    12   ar
    14    12    13   ar
    15    13    14   ar
    16    14    15   ar
    17    15    16   ar
    18    15    17    1
    19    17    18    2
    20    17    19   am
    21    19    20    1
    22    20    21    1
    23    21    22   ar
    24    22    23   ar
    25    23    24   ar
    26    24    25   ar
    27    25    26   ar
    28    25    27    1
    29    27    28   ar
    30    28    29   ar
    31    29    30   ar
    32    30    31   ar
    33    31    32   ar
    34    32    33   ar
    35    33    34   ar
    36    34    35   ar
    37    35    36   ar
    38     6     1   ar
    39    16    11   ar
    40    26    21   ar
    41    36    27   ar
    42    34     4    1
    43    36    31   ar
    44     7    37    1
    45    19    38    1
