@<TRIPOS>MOLECULE
*****
 34 37 0 0 0
SMALL
GASTEIGER

@<TRIPOS>ATOM
      1 N         139.3677  139.9287  164.5523 N.am    1  UNL1       -0.2986
      2 C         138.6285  140.9248  163.7087 C.2     1  UNL1        0.2472
      3 O         137.6138  141.8333  164.3369 O.2     1  UNL1       -0.2701
      4 H         140.0337  139.3323  164.1400 H       1  UNL1        0.1500
      5 C         138.9041  141.0121  162.2368 C.ar    1  UNL1        0.0690
      6 C         138.8881  139.8675  161.2674 C.ar    1  UNL1        0.0275
      7 C         139.2182  140.4074  159.9074 C.ar    1  UNL1        0.1142
      8 N         139.4382  141.8856  160.0363 N.ar    1  UNL1       -0.3223
      9 C         139.2440  142.2593  161.4759 C.ar    1  UNL1        0.0717
     10 C         139.4019  143.6870  161.9081 C.3     1  UNL1        0.1857
     11 O         139.7539  144.7410  160.9005 O.3     1  UNL1       -0.3454
     12 C         139.9480  144.3673  159.4608 C.3     1  UNL1        0.1671
     13 C         139.7902  142.9396  159.0287 C.3     1  UNL1        0.1379
     14 C         139.3118  139.6093  158.6408 C.2     1  UNL1        0.2649
     15 O         138.1864  139.6402  157.6498 O.2     1  UNL1       -0.2683
     16 N         140.5312  138.7801  158.3652 N.am    1  UNL1       -0.2765
     17 C         141.7298  138.6511  159.2578 C.3     1  UNL1        0.0937
     18 C         142.7053  137.7257  158.5929 C.3     1  UNL1        0.0232
     19 C         142.1096  137.2827  157.2896 C.3     1  UNL1        0.0216
     20 C         140.7659  137.9344  157.1488 C.3     1  UNL1        0.0758
     21 C         139.8225  137.7694  155.9944 C.3     1  UNL1        0.0215
     22 C         139.0921  139.8414  166.0242 C.3     1  UNL1        0.0958
     23 C         139.9487  140.6002  166.9940 C.ar    1  UNL1        0.0147
     24 C         139.7691  140.3997  168.4696 C.ar    1  UNL1        0.0003
     25 C         140.6257  141.1585  169.4394 C.ar    1  UNL1        0.0228
     26 C         141.6619  142.1178  168.9334 C.ar    1  UNL1        0.1526
     27 N         141.8415  142.3183  167.4578 N.ar    1  UNL1       -0.2401
     28 C         140.9849  141.5595  166.4880 C.ar    1  UNL1        0.0960
     29 C         142.5185  142.8766  169.9032 C.3     1  UNL1        0.4348
     30 F         143.3751  143.6354  170.8729 F       1  UNL1       -0.1644
     31 F         141.4298  143.8952  170.0679 F       1  UNL1       -0.1644
     32 F         143.6073  141.8580  169.7385 F       1  UNL1       -0.1644
     33 C         138.0064  137.5052  166.3603 C.3     1  UNL1        0.0021
     34 C         137.9599  138.9953  166.5262 C.3     1  UNL1        0.0242
@<TRIPOS>BOND
     1    33    34    1
     2    22    34    1
     3    22     1    1
     4     1     2   am
     5     2     3    2
     6     2     5    1
     7     5     6   ar
     8     6     7   ar
     9     7    14    1
    10    14    15    2
    11    14    16   am
    12    16    17    1
    13    17    18    1
    14    18    19    1
    15    19    20    1
    16    20    21    1
    17     7     8   ar
    18     8     9   ar
    19     9    10    1
    20    10    11    1
    21    11    12    1
    22    12    13    1
    23    22    23    1
    24    23    24   ar
    25    24    25   ar
    26    25    26   ar
    27    26    29    1
    28    29    30    1
    29    29    31    1
    30    29    32    1
    31    26    27   ar
    32    27    28   ar
    33     9     5   ar
    34    28    23   ar
    35    20    16    1
    36    13     8    1
    37     1     4    1
@<TRIPOS>MOLECULE
*****
 34 37 0 0 0
SMALL
GASTEIGER

@<TRIPOS>ATOM
      1 N         139.9846  139.2694  163.2587 N.am    1  UNL1       -0.2986
      2 C         140.6987  138.3064  162.3572 C.2     1  UNL1        0.2472
      3 O         141.2507  137.0273  162.9129 O.2     1  UNL1       -0.2701
      4 H         139.6223  140.1090  162.8940 H       1  UNL1        0.1500
      5 C         140.8609  138.6227  160.8999 C.ar    1  UNL1        0.0690
      6 C         142.1093  138.4337  160.0902 C.ar    1  UNL1        0.0275
      7 C         141.8230  138.8778  158.6864 C.ar    1  UNL1        0.1142
      8 N         140.3976  139.3413  158.6284 N.ar    1  UNL1       -0.3223
      9 C         139.8029  139.1836  159.9964 C.ar    1  UNL1        0.0717
     10 C         138.3750  139.5712  160.2428 C.3     1  UNL1        0.1857
     11 O         137.5417  140.1164  159.1210 O.3     1  UNL1       -0.3454
     12 C         138.1363  140.2740  157.7530 C.3     1  UNL1        0.1671
     13 C         139.5643  139.8865  157.5067 C.3     1  UNL1        0.1379
     14 C         142.7919  138.8613  157.5414 C.2     1  UNL1        0.2649
     15 O         143.4322  140.1376  157.0822 O.2     1  UNL1       -0.2683
     16 N         143.1207  137.5683  156.8556 N.am    1  UNL1       -0.2765
     17 C         142.5622  136.2198  157.2018 C.3     1  UNL1        0.0937
     18 C         143.1619  135.2150  156.2635 C.3     1  UNL1        0.0232
     19 C         144.0910  135.9423  155.3373 C.3     1  UNL1        0.0216
     20 C         144.0655  137.3968  155.7033 C.3     1  UNL1        0.0758
     21 C         144.8475  138.4881  155.0345 C.3     1  UNL1        0.0215
     22 C         139.8225  138.9531  164.7160 C.3     1  UNL1        0.0958
     23 C         140.6881  139.6365  165.7327 C.ar    1  UNL1        0.0147
     24 C         141.9161  138.9510  166.2544 C.ar    1  UNL1        0.0003
     25 C         142.7818  139.6344  167.2710 C.ar    1  UNL1        0.0228
     26 C         142.4195  141.0032  167.7659 C.ar    1  UNL1        0.1526
     27 N         141.1915  141.6887  167.2442 N.ar    1  UNL1       -0.2401
     28 C         140.3258  141.0053  166.2276 C.ar    1  UNL1        0.0960
     29 C         143.2852  141.6866  168.7826 C.3     1  UNL1        0.4348
     30 F         144.1509  142.3700  169.7992 F       1  UNL1       -0.1644
     31 F         142.8631  140.6844  169.8157 F       1  UNL1       -0.1644
     32 F         143.7073  142.6888  167.7495 F       1  UNL1       -0.1644
     33 C         138.0259  138.1775  166.4250 C.3     1  UNL1        0.0021
     34 C         138.7946  137.9534  165.1566 C.3     1  UNL1        0.0242
@<TRIPOS>BOND
     1    33    34    1
     2    22    34    1
     3    22     1    1
     4     1     2   am
     5     2     3    2
     6     2     5    1
     7     5     6   ar
     8     6     7   ar
     9     7    14    1
    10    14    15    2
    11    14    16   am
    12    16    17    1
    13    17    18    1
    14    18    19    1
    15    19    20    1
    16    20    21    1
    17     7     8   ar
    18     8     9   ar
    19     9    10    1
    20    10    11    1
    21    11    12    1
    22    12    13    1
    23    22    23    1
    24    23    24   ar
    25    24    25   ar
    26    25    26   ar
    27    26    29    1
    28    29    30    1
    29    29    31    1
    30    29    32    1
    31    26    27   ar
    32    27    28   ar
    33     9     5   ar
    34    28    23   ar
    35    20    16    1
    36    13     8    1
    37     1     4    1
@<TRIPOS>MOLECULE
*****
 34 37 0 0 0
SMALL
GASTEIGER

@<TRIPOS>ATOM
      1 N         135.9403  142.0424  156.0953 N.am    1  UNL1       -0.2986
      2 C         137.1214  141.3011  156.6482 C.2     1  UNL1        0.2472
      3 O         137.3589  139.8721  156.2594 O.2     1  UNL1       -0.2701
      4 H         135.7843  142.9804  156.3505 H       1  UNL1        0.1500
      5 C         138.0649  141.9890  157.5899 C.ar    1  UNL1        0.0690
      6 C         138.4842  141.4881  158.9402 C.ar    1  UNL1        0.0275
      7 C         139.4331  142.4882  159.5313 C.ar    1  UNL1        0.1142
      8 N         139.6002  143.6071  158.5464 N.ar    1  UNL1       -0.3223
      9 C         138.7546  143.2986  157.3465 C.ar    1  UNL1        0.0717
     10 C         138.7219  144.2501  156.1874 C.3     1  UNL1        0.1857
     11 O         139.5348  145.5100  156.2282 O.3     1  UNL1       -0.3454
     12 C         140.3805  145.8185  157.4281 C.3     1  UNL1        0.1671
     13 C         140.4132  144.8670  158.5872 C.3     1  UNL1        0.1379
     14 C         140.0981  142.3870  160.8720 C.2     1  UNL1        0.2649
     15 O         141.4723  141.7965  160.9850 O.2     1  UNL1       -0.2683
     16 N         139.3889  142.8765  162.0999 N.am    1  UNL1       -0.2765
     17 C         138.0196  143.4873  162.1426 C.3     1  UNL1        0.0937
     18 C         137.7090  143.8294  163.5696 C.3     1  UNL1        0.0232
     19 C         138.8863  143.4301  164.4089 C.3     1  UNL1        0.0216
     20 C         139.9246  142.8411  163.5005 C.3     1  UNL1        0.0758
     21 C         141.2634  142.3101  163.9193 C.3     1  UNL1        0.0215
     22 C         134.9968  141.3545  155.1537 C.3     1  UNL1        0.0958
     23 C         133.7821  140.6547  155.6872 C.ar    1  UNL1        0.0147
     24 C         133.9046  139.2767  156.2672 C.ar    1  UNL1        0.0003
     25 C         132.6898  138.5769  156.8007 C.ar    1  UNL1        0.0228
     26 C         131.3527  139.2550  156.7543 C.ar    1  UNL1        0.1526
     27 N         131.2303  140.6330  156.1744 N.ar    1  UNL1       -0.2401
     28 C         132.4450  141.3328  155.6409 C.ar    1  UNL1        0.0960
     29 C         130.1380  138.5552  157.2879 C.3     1  UNL1        0.4348
     30 F         128.9233  137.8553  157.8214 F       1  UNL1       -0.1644
     31 F         130.3339  137.4536  156.2889 F       1  UNL1       -0.1644
     32 F         129.9421  139.6568  158.2869 F       1  UNL1       -0.1644
     33 C         135.8118  140.1409  153.0060 C.3     1  UNL1        0.0021
     34 C         135.2682  141.3665  153.6785 C.3     1  UNL1        0.0242
@<TRIPOS>BOND
     1    33    34    1
     2    22    34    1
     3    22     1    1
     4     1     2   am
     5     2     3    2
     6     2     5    1
     7     5     6   ar
     8     6     7   ar
     9     7    14    1
    10    14    15    2
    11    14    16   am
    12    16    17    1
    13    17    18    1
    14    18    19    1
    15    19    20    1
    16    20    21    1
    17     7     8   ar
    18     8     9   ar
    19     9    10    1
    20    10    11    1
    21    11    12    1
    22    12    13    1
    23    22    23    1
    24    23    24   ar
    25    24    25   ar
    26    25    26   ar
    27    26    29    1
    28    29    30    1
    29    29    31    1
    30    29    32    1
    31    26    27   ar
    32    27    28   ar
    33     9     5   ar
    34    28    23   ar
    35    20    16    1
    36    13     8    1
    37     1     4    1
@<TRIPOS>MOLECULE
*****
 34 37 0 0 0
SMALL
GASTEIGER

@<TRIPOS>ATOM
      1 N         140.3533  143.2539  162.6321 N.am    1  UNL1       -0.2986
      2 C         141.8195  143.1413  162.3360 C.2     1  UNL1        0.2472
      3 O         142.7979  142.9456  163.4559 O.2     1  UNL1       -0.2701
      4 H         139.7111  143.3823  161.8971 H       1  UNL1        0.1500
      5 C         142.3072  143.2244  160.9199 C.ar    1  UNL1        0.0690
      6 C         143.4305  142.4272  160.3260 C.ar    1  UNL1        0.0275
      7 C         143.5746  142.8295  158.8882 C.ar    1  UNL1        0.1142
      8 N         142.5405  143.8753  158.5934 N.ar    1  UNL1       -0.3223
      9 C         141.7571  144.1193  159.8491 C.ar    1  UNL1        0.0717
     10 C         140.6442  145.1249  159.8553 C.3     1  UNL1        0.1857
     11 O         140.3146  145.8865  158.6058 O.3     1  UNL1       -0.3454
     12 C         141.0979  145.6424  157.3501 C.3     1  UNL1        0.1671
     13 C         142.2109  144.6368  157.3439 C.3     1  UNL1        0.1379
     14 C         144.5770  142.2821  157.9157 C.2     1  UNL1        0.2649
     15 O         145.9890  142.7879  157.9296 O.2     1  UNL1       -0.2683
     16 N         144.1673  141.2288  156.9294 N.am    1  UNL1       -0.2765
     17 C         142.7987  140.6292  156.7974 C.3     1  UNL1        0.0937
     18 C         142.8398  139.6201  155.6883 C.3     1  UNL1        0.0232
     19 C         144.2337  139.5960  155.1349 C.3     1  UNL1        0.0216
     20 C         145.0542  140.5903  155.9019 C.3     1  UNL1        0.0758
     21 C         146.5065  140.8930  155.6804 C.3     1  UNL1        0.0215
     22 C         139.8656  143.1707  164.0482 C.3     1  UNL1        0.0958
     23 C         139.4060  141.8569  164.6073 C.ar    1  UNL1        0.0147
     24 C         138.6412  140.8998  163.7417 C.ar    1  UNL1        0.0003
     25 C         138.1816  139.5860  164.3008 C.ar    1  UNL1        0.0228
     26 C         138.4868  139.2292  165.7254 C.ar    1  UNL1        0.1526
     27 N         139.2517  140.1862  166.5909 N.ar    1  UNL1       -0.2401
     28 C         139.7113  141.5000  166.0319 C.ar    1  UNL1        0.0960
     29 C         138.0272  137.9153  166.2844 C.3     1  UNL1        0.4348
     30 F         137.5677  136.6014  166.8435 F       1  UNL1       -0.1644
     31 F         138.7608  137.1942  165.1927 F       1  UNL1       -0.1644
     32 F         137.2937  138.6364  167.3762 F       1  UNL1       -0.1644
     33 C         138.5320  144.9187  165.4323 C.3     1  UNL1        0.0021
     34 C         139.8376  144.4015  164.9052 C.3     1  UNL1        0.0242
@<TRIPOS>BOND
     1    33    34    1
     2    22    34    1
     3    22     1    1
     4     1     2   am
     5     2     3    2
     6     2     5    1
     7     5     6   ar
     8     6     7   ar
     9     7    14    1
    10    14    15    2
    11    14    16   am
    12    16    17    1
    13    17    18    1
    14    18    19    1
    15    19    20    1
    16    20    21    1
    17     7     8   ar
    18     8     9   ar
    19     9    10    1
    20    10    11    1
    21    11    12    1
    22    12    13    1
    23    22    23    1
    24    23    24   ar
    25    24    25   ar
    26    25    26   ar
    27    26    29    1
    28    29    30    1
    29    29    31    1
    30    29    32    1
    31    26    27   ar
    32    27    28   ar
    33     9     5   ar
    34    28    23   ar
    35    20    16    1
    36    13     8    1
    37     1     4    1
@<TRIPOS>MOLECULE
*****
 34 37 0 0 0
SMALL
GASTEIGER

@<TRIPOS>ATOM
      1 N         140.1286  142.6353  162.2439 N.am    1  UNL1       -0.2986
      2 C         139.0796  143.2324  161.3531 C.2     1  UNL1        0.2472
      3 O         137.8395  143.8286  161.9502 O.2     1  UNL1       -0.2701
      4 H         140.9426  142.2440  161.8520 H       1  UNL1        0.1500
      5 C         139.2710  143.2332  159.8654 C.ar    1  UNL1        0.0690
      6 C         138.5323  142.3757  158.8810 C.ar    1  UNL1        0.0275
      7 C         139.0394  142.7043  157.5080 C.ar    1  UNL1        0.1142
      8 N         140.0914  143.7648  157.6439 N.ar    1  UNL1       -0.3223
      9 C         140.2346  144.0917  159.1008 C.ar    1  UNL1        0.0717
     10 C         141.2239  145.1288  159.5431 C.3     1  UNL1        0.1857
     11 O         142.0700  145.8390  158.5284 O.3     1  UNL1       -0.3454
     12 C         141.9269  145.5121  157.0715 C.3     1  UNL1        0.1671
     13 C         140.9376  144.4750  156.6292 C.3     1  UNL1        0.1379
     14 C         138.5758  142.0816  156.2245 C.2     1  UNL1        0.2649
     15 O         137.8307  142.9061  155.2171 O.2     1  UNL1       -0.2683
     16 N         138.8573  140.6343  155.9484 N.am    1  UNL1       -0.2765
     17 C         139.5874  139.6893  156.8562 C.3     1  UNL1        0.0937
     18 C         139.6395  138.3490  156.1849 C.3     1  UNL1        0.0232
     19 C         138.9417  138.4655  154.8623 C.3     1  UNL1        0.0216
     20 C         138.4583  139.8779  154.7161 C.3     1  UNL1        0.0758
     21 C         137.7076  140.4360  153.5435 C.3     1  UNL1        0.0215
     22 C         139.9373  142.6345  163.7316 C.3     1  UNL1        0.0958
     23 C         139.4278  141.4039  164.4216 C.ar    1  UNL1        0.0147
     24 C         139.5105  141.2930  165.9152 C.ar    1  UNL1        0.0003
     25 C         139.0011  140.0624  166.6052 C.ar    1  UNL1        0.0228
     26 C         138.4089  138.9428  165.8016 C.ar    1  UNL1        0.1526
     27 N         138.3262  139.0537  164.3080 N.ar    1  UNL1       -0.2401
     28 C         138.8357  140.2843  163.6180 C.ar    1  UNL1        0.0960
     29 C         137.8995  137.7122  166.4916 C.3     1  UNL1        0.4348
     30 F         137.3900  136.4816  167.1816 F       1  UNL1       -0.1644
     31 F         138.5518  136.8562  165.4467 F       1  UNL1       -0.1644
     32 F         137.2472  138.5681  167.5366 F       1  UNL1       -0.1644
     33 C         139.1503  144.7740  164.9778 C.3     1  UNL1        0.0021
     34 C         140.2554  143.8643  164.5293 C.3     1  UNL1        0.0242
@<TRIPOS>BOND
     1    33    34    1
     2    22    34    1
     3    22     1    1
     4     1     2   am
     5     2     3    2
     6     2     5    1
     7     5     6   ar
     8     6     7   ar
     9     7    14    1
    10    14    15    2
    11    14    16   am
    12    16    17    1
    13    17    18    1
    14    18    19    1
    15    19    20    1
    16    20    21    1
    17     7     8   ar
    18     8     9   ar
    19     9    10    1
    20    10    11    1
    21    11    12    1
    22    12    13    1
    23    22    23    1
    24    23    24   ar
    25    24    25   ar
    26    25    26   ar
    27    26    29    1
    28    29    30    1
    29    29    31    1
    30    29    32    1
    31    26    27   ar
    32    27    28   ar
    33     9     5   ar
    34    28    23   ar
    35    20    16    1
    36    13     8    1
    37     1     4    1
@<TRIPOS>MOLECULE
*****
 34 37 0 0 0
SMALL
GASTEIGER

@<TRIPOS>ATOM
      1 N         139.8076  145.5812  157.0214 N.am    1  UNL1       -0.2986
      2 C         141.1738  145.5563  157.6404 C.2     1  UNL1        0.2472
      3 O         142.3396  146.1524  156.9087 O.2     1  UNL1       -0.2701
      4 H         139.0424  145.1899  157.5016 H       1  UNL1        0.1500
      5 C         141.3740  144.9353  158.9911 C.ar    1  UNL1        0.0690
      6 C         140.5957  145.2555  160.2327 C.ar    1  UNL1        0.0275
      7 C         141.1284  144.4032  161.3462 C.ar    1  UNL1        0.1142
      8 N         142.2359  143.5563  160.7927 N.ar    1  UNL1       -0.3223
      9 C         142.3876  143.8852  159.3371 C.ar    1  UNL1        0.0717
     10 C         143.4292  143.1860  158.5149 C.3     1  UNL1        0.1857
     11 O         144.3190  142.1579  159.1482 O.3     1  UNL1       -0.3454
     12 C         144.1672  141.8290  160.6038 C.3     1  UNL1        0.1671
     13 C         143.1257  142.5282  161.4261 C.3     1  UNL1        0.1379
     14 C         140.6395  144.3985  162.7643 C.2     1  UNL1        0.2649
     15 O         141.3495  145.2123  163.8052 O.2     1  UNL1       -0.2683
     16 N         139.4403  143.5800  163.1415 N.am    1  UNL1       -0.2765
     17 C         138.6322  142.7210  162.2147 C.3     1  UNL1        0.0937
     18 C         137.5313  142.0870  163.0121 C.3     1  UNL1        0.0232
     19 C         137.6589  142.5541  164.4318 C.3     1  UNL1        0.0216
     20 C         138.8388  143.4769  164.5118 C.3     1  UNL1        0.0758
     21 C         139.3308  144.1741  165.7453 C.3     1  UNL1        0.0215
     22 C         139.6074  146.2021  155.6707 C.3     1  UNL1        0.0958
     23 C         139.3625  147.6773  155.5523 C.ar    1  UNL1        0.0147
     24 C         139.8199  148.4178  154.3306 C.ar    1  UNL1        0.0003
     25 C         139.5751  149.8929  154.2121 C.ar    1  UNL1        0.0228
     26 C         138.8728  150.6275  155.3154 C.ar    1  UNL1        0.1526
     27 N         138.4154  149.8870  156.5370 N.ar    1  UNL1       -0.2401
     28 C         138.6602  148.4119  156.6555 C.ar    1  UNL1        0.0960
     29 C         138.6279  152.1026  155.1969 C.3     1  UNL1        0.4348
     30 F         138.3831  153.5778  155.0785 F       1  UNL1       -0.1644
     31 F         138.8126  152.2522  156.6780 F       1  UNL1       -0.1644
     32 F         138.4433  151.9531  153.7159 F       1  UNL1       -0.1644
     33 C         139.8791  143.8701  154.5584 C.3     1  UNL1        0.0021
     34 C         139.6521  145.3479  154.4385 C.3     1  UNL1        0.0242
@<TRIPOS>BOND
     1    33    34    1
     2    22    34    1
     3    22     1    1
     4     1     2   am
     5     2     3    2
     6     2     5    1
     7     5     6   ar
     8     6     7   ar
     9     7    14    1
    10    14    15    2
    11    14    16   am
    12    16    17    1
    13    17    18    1
    14    18    19    1
    15    19    20    1
    16    20    21    1
    17     7     8   ar
    18     8     9   ar
    19     9    10    1
    20    10    11    1
    21    11    12    1
    22    12    13    1
    23    22    23    1
    24    23    24   ar
    25    24    25   ar
    26    25    26   ar
    27    26    29    1
    28    29    30    1
    29    29    31    1
    30    29    32    1
    31    26    27   ar
    32    27    28   ar
    33     9     5   ar
    34    28    23   ar
    35    20    16    1
    36    13     8    1
    37     1     4    1
@<TRIPOS>MOLECULE
*****
 34 37 0 0 0
SMALL
GASTEIGER

@<TRIPOS>ATOM
      1 N         141.5468  143.9678  161.3944 N.am    1  UNL1       -0.2986
      2 C         140.2796  144.4913  160.7857 C.2     1  UNL1        0.2472
      3 O         139.2082  145.0671  161.6633 O.2     1  UNL1       -0.2701
      4 H         142.2501  143.5899  160.8184 H       1  UNL1        0.1500
      5 C         140.0842  144.4391  159.2994 C.ar    1  UNL1        0.0690
      6 C         140.6455  145.4083  158.3017 C.ar    1  UNL1        0.0275
      7 C         140.2013  144.9766  156.9356 C.ar    1  UNL1        0.1142
      8 N         139.3654  143.7405  157.0890 N.ar    1  UNL1       -0.3223
      9 C         139.2931  143.4083  158.5499 C.ar    1  UNL1        0.0717
     10 C         138.5161  142.2102  159.0090 C.3     1  UNL1        0.1857
     11 O         137.8116  141.3443  158.0072 O.3     1  UNL1       -0.3454
     12 C         137.8840  141.6765  156.5462 C.3     1  UNL1        0.1671
     13 C         138.6609  142.8746  156.0871 C.3     1  UNL1        0.1379
     14 C         140.5344  145.6608  155.6429 C.2     1  UNL1        0.2649
     15 O         141.4292  144.9860  154.6460 O.2     1  UNL1       -0.2683
     16 N         139.9728  147.0200  155.3473 N.am    1  UNL1       -0.2765
     17 C         139.0691  147.8144  156.2429 C.3     1  UNL1        0.0937
     18 C         138.7540  149.1086  155.5532 C.3     1  UNL1        0.0232
     19 C         139.4629  149.1141  154.2314 C.3     1  UNL1        0.0216
     20 C         140.2162  147.8232  154.1041 C.3     1  UNL1        0.0758
     21 C         141.0640  147.4083  152.9383 C.3     1  UNL1        0.0215
     22 C         141.7422  144.0201  162.8807 C.3     1  UNL1        0.0958
     23 C         141.0884  142.9954  163.7597 C.ar    1  UNL1        0.0147
     24 C         140.3538  143.4256  164.9947 C.ar    1  UNL1        0.0003
     25 C         139.7000  142.4010  165.8737 C.ar    1  UNL1        0.0228
     26 C         139.7807  140.9461  165.5176 C.ar    1  UNL1        0.1526
     27 N         140.5153  140.5159  164.2825 N.ar    1  UNL1       -0.2401
     28 C         141.1691  141.5405  163.4036 C.ar    1  UNL1        0.0960
     29 C         139.1269  139.9215  166.3965 C.3     1  UNL1        0.4348
     30 F         138.4730  138.8968  167.2755 F       1  UNL1       -0.1644
     31 F         140.3933  139.7942  167.1903 F       1  UNL1       -0.1644
     32 F         137.8605  140.0487  165.6028 F       1  UNL1       -0.1644
     33 C         143.8351  144.7343  164.2443 C.3     1  UNL1        0.0021
     34 C         142.5915  145.0970  163.4880 C.3     1  UNL1        0.0242
@<TRIPOS>BOND
     1    33    34    1
     2    22    34    1
     3    22     1    1
     4     1     2   am
     5     2     3    2
     6     2     5    1
     7     5     6   ar
     8     6     7   ar
     9     7    14    1
    10    14    15    2
    11    14    16   am
    12    16    17    1
    13    17    18    1
    14    18    19    1
    15    19    20    1
    16    20    21    1
    17     7     8   ar
    18     8     9   ar
    19     9    10    1
    20    10    11    1
    21    11    12    1
    22    12    13    1
    23    22    23    1
    24    23    24   ar
    25    24    25   ar
    26    25    26   ar
    27    26    29    1
    28    29    30    1
    29    29    31    1
    30    29    32    1
    31    26    27   ar
    32    27    28   ar
    33     9     5   ar
    34    28    23   ar
    35    20    16    1
    36    13     8    1
    37     1     4    1
@<TRIPOS>MOLECULE
*****
 34 37 0 0 0
SMALL
GASTEIGER

@<TRIPOS>ATOM
      1 N         142.8842  140.7485  159.4606 N.am    1  UNL1       -0.2986
      2 C         143.5038  140.1595  160.6933 C.2     1  UNL1        0.2472
      3 O         144.4203  138.9776  160.5804 O.2     1  UNL1       -0.2701
      4 H         142.2826  141.5243  159.5347 H       1  UNL1        0.1500
      5 C         143.2067  140.7526  162.0387 C.ar    1  UNL1        0.0690
      6 C         142.6287  140.0236  163.2154 C.ar    1  UNL1        0.0275
      7 C         142.5002  140.9992  164.3475 C.ar    1  UNL1        0.1142
      8 N         142.9988  142.3311  163.8705 N.ar    1  UNL1       -0.3223
      9 C         143.4354  142.1787  162.4435 C.ar    1  UNL1        0.0717
     10 C         143.9849  143.3581  161.6972 C.3     1  UNL1        0.1857
     11 O         144.0977  144.6900  162.3779 O.3     1  UNL1       -0.3454
     12 C         143.6611  144.8424  163.8048 C.3     1  UNL1        0.1671
     13 C         143.1117  143.6630  164.5511 C.3     1  UNL1        0.1379
     14 C         141.9668  140.6962  165.7163 C.2     1  UNL1        0.2649
     15 O         142.8362  140.8983  166.9217 O.2     1  UNL1       -0.2683
     16 N         140.5639  140.1910  165.8796 N.am    1  UNL1       -0.2765
     17 C         139.5823  139.9412  164.7732 C.3     1  UNL1        0.0937
     18 C         138.3081  139.4427  165.3879 C.3     1  UNL1        0.0232
     19 C         138.5020  139.3845  166.8741 C.3     1  UNL1        0.0216
     20 C         139.8962  139.8469  167.1780 C.3     1  UNL1        0.0758
     21 C         140.5143  139.9477  168.5410 C.3     1  UNL1        0.0215
     22 C         143.1813  140.1555  158.1152 C.3     1  UNL1        0.0958
     23 C         144.3546  140.6480  157.3210 C.ar    1  UNL1        0.0147
     24 C         144.7460  139.9521  156.0512 C.ar    1  UNL1        0.0003
     25 C         145.9193  140.4446  155.2570 C.ar    1  UNL1        0.0228
     26 C         146.7011  141.6331  155.7326 C.ar    1  UNL1        0.1526
     27 N         146.3097  142.3291  157.0024 N.ar    1  UNL1       -0.2401
     28 C         145.1364  141.8365  157.7966 C.ar    1  UNL1        0.0960
     29 C         147.8744  142.1257  154.9383 C.3     1  UNL1        0.4348
     30 F         149.0477  142.6182  154.1441 F       1  UNL1       -0.1644
     31 F         147.0365  142.1156  153.6943 F       1  UNL1       -0.1644
     32 F         148.7123  142.1358  156.1824 F       1  UNL1       -0.1644
     33 C         142.5650  137.6385  157.9295 C.3     1  UNL1        0.0021
     34 C         142.3051  139.0699  157.5642 C.3     1  UNL1        0.0242
@<TRIPOS>BOND
     1    33    34    1
     2    22    34    1
     3    22     1    1
     4     1     2   am
     5     2     3    2
     6     2     5    1
     7     5     6   ar
     8     6     7   ar
     9     7    14    1
    10    14    15    2
    11    14    16   am
    12    16    17    1
    13    17    18    1
    14    18    19    1
    15    19    20    1
    16    20    21    1
    17     7     8   ar
    18     8     9   ar
    19     9    10    1
    20    10    11    1
    21    11    12    1
    22    12    13    1
    23    22    23    1
    24    23    24   ar
    25    24    25   ar
    26    25    26   ar
    27    26    29    1
    28    29    30    1
    29    29    31    1
    30    29    32    1
    31    26    27   ar
    32    27    28   ar
    33     9     5   ar
    34    28    23   ar
    35    20    16    1
    36    13     8    1
    37     1     4    1
@<TRIPOS>MOLECULE
*****
 34 37 0 0 0
SMALL
GASTEIGER

@<TRIPOS>ATOM
      1 N         142.9507  137.9605  158.2788 N.am    1  UNL1       -0.2986
      2 C         141.6941  138.6101  158.7778 C.2     1  UNL1        0.2472
      3 O         140.5035  138.7331  157.8738 O.2     1  UNL1       -0.2701
      4 H         143.7322  137.8797  158.8721 H       1  UNL1        0.1500
      5 C         141.6282  139.1368  160.1808 C.ar    1  UNL1        0.0690
      6 C         142.6424  140.0257  160.8374 C.ar    1  UNL1        0.0275
      7 C         142.1775  140.3052  162.2358 C.ar    1  UNL1        0.1142
      8 N         140.8759  139.5891  162.4435 N.ar    1  UNL1       -0.3223
      9 C         140.5364  138.8670  161.1734 C.ar    1  UNL1        0.0717
     10 C         139.2770  138.0571  161.0847 C.3     1  UNL1        0.1857
     11 O         138.3571  137.9693  162.2663 O.3     1  UNL1       -0.3454
     12 C         138.6966  138.6914  163.5364 C.3     1  UNL1        0.1671
     13 C         139.9560  139.5013  163.6250 C.3     1  UNL1        0.1379
     14 C         142.8892  141.1522  163.2488 C.2     1  UNL1        0.2649
     15 O         143.8345  140.5180  164.2256 O.2     1  UNL1       -0.2683
     16 N         142.6555  142.6335  163.2851 N.am    1  UNL1       -0.2765
     17 C         141.7442  143.4048  162.3770 C.3     1  UNL1        0.0937
     18 C         141.8177  144.8514  162.7665 C.3     1  UNL1        0.0232
     19 C         142.7743  144.9743  163.9152 C.3     1  UNL1        0.0216
     20 C         143.2922  143.6035  164.2358 C.3     1  UNL1        0.0758
     21 C         144.2742  143.2625  165.3171 C.3     1  UNL1        0.0215
     22 C         143.0166  137.4338  156.8758 C.3     1  UNL1        0.0958
     23 C         142.7429  135.9840  156.6053 C.ar    1  UNL1        0.0147
     24 C         141.9122  135.5858  155.4215 C.ar    1  UNL1        0.0003
     25 C         141.6385  134.1360  155.1509 C.ar    1  UNL1        0.0228
     26 C         142.1954  133.0845  156.0642 C.ar    1  UNL1        0.1526
     27 N         143.0260  133.4827  157.2481 N.ar    1  UNL1       -0.2401
     28 C         143.2998  134.9325  157.5186 C.ar    1  UNL1        0.0960
     29 C         141.9216  131.6347  155.7937 C.3     1  UNL1        0.4348
     30 F         141.6479  130.1849  155.5232 F       1  UNL1       -0.1644
     31 F         141.1769  132.0081  154.5463 F       1  UNL1       -0.1644
     32 F         142.6664  131.2613  157.0411 F       1  UNL1       -0.1644
     33 C         144.6886  138.2502  155.0627 C.3     1  UNL1        0.0021
     34 C         143.3563  138.3570  155.7435 C.3     1  UNL1        0.0242
@<TRIPOS>BOND
     1    33    34    1
     2    22    34    1
     3    22     1    1
     4     1     2   am
     5     2     3    2
     6     2     5    1
     7     5     6   ar
     8     6     7   ar
     9     7    14    1
    10    14    15    2
    11    14    16   am
    12    16    17    1
    13    17    18    1
    14    18    19    1
    15    19    20    1
    16    20    21    1
    17     7     8   ar
    18     8     9   ar
    19     9    10    1
    20    10    11    1
    21    11    12    1
    22    12    13    1
    23    22    23    1
    24    23    24   ar
    25    24    25   ar
    26    25    26   ar
    27    26    29    1
    28    29    30    1
    29    29    31    1
    30    29    32    1
    31    26    27   ar
    32    27    28   ar
    33     9     5   ar
    34    28    23   ar
    35    20    16    1
    36    13     8    1
    37     1     4    1
