@<TRIPOS>MOLECULE
*****
 31 35 0 0 0
SMALL
GASTEIGER

@<TRIPOS>ATOM
      1 C         140.5213  137.6075  163.9837 C.3     1  UNL1        0.0545
      2 C         139.1111  137.4666  164.4750 C.3     1  UNL1        0.0162
      3 C         138.9666  138.2993  165.7143 C.3     1  UNL1        0.0095
      4 C         138.0057  138.7268  166.7839 C.3     1  UNL1        0.0005
      5 C         138.7328  139.6466  167.7195 C.3     1  UNL1        0.0005
      6 C         140.1430  139.7875  167.2282 C.3     1  UNL1        0.0087
      7 C         140.2875  138.9548  165.9889 C.3     1  UNL1        0.0704
      8 C         141.2484  138.5273  164.9193 C.3     1  UNL1        0.0243
      9 C         141.6084  139.6104  166.2635 C.2     1  UNL1        0.2250
     10 O         142.6303  138.9124  167.1113 O.2     1  UNL1       -0.2749
     11 N         141.9076  140.9639  165.6902 N.am    1  UNL1       -0.2750
     12 C         143.2285  141.6194  165.9648 C.3     1  UNL1        0.1000
     13 C         143.5276  142.9729  165.3915 C.3     1  UNL1        0.0670
     14 C         142.5057  143.6708  164.5437 C.ar    1  UNL1        0.0584
     15 N         142.8049  145.0243  163.9705 N.ar    1  UNL1       -0.2475
     16 C         141.7831  145.7223  163.1227 C.ar    1  UNL1        0.1097
     17 C         140.4621  145.0667  162.8481 C.ar    1  UNL1        0.0765
     18 CL        139.4403  145.7646  162.0003 Cl      1  UNL1       -0.0806
     19 C         140.1630  143.7132  163.4214 C.ar    1  UNL1        0.0115
     20 C         141.1848  143.0153  164.2692 C.ar    1  UNL1        0.0122
     21 C         140.8857  141.6618  164.8424 C.3     1  UNL1        0.1213
     22 N         141.1024  136.9450  162.7698 N.3     1  UNL1       -0.2975
     23 H         141.7816  136.2614  163.1042 H       1  UNL1        0.1232
     24 C         141.0053  138.3824  160.6078 C.3     1  UNL1        0.1591
     25 C         141.6984  139.2061  159.5633 C.3     1  UNL1        0.1729
     26 O         143.1818  139.4162  159.6362 O.3     1  UNL1       -0.3511
     27 C         143.9722  138.8025  160.7538 C.3     1  UNL1        0.1437
     28 C         143.2790  137.9788  161.7983 C.3     1  UNL1        0.0503
     29 C         141.7955  137.7687  161.7253 C.3     1  UNL1        0.0865
     30 C         138.5917  139.1665  161.1645 C.3     1  UNL1        0.1742
     31 O         139.5219  138.1723  160.5348 O.3     1  UNL1       -0.3496
@<TRIPOS>BOND
     1    30    31    1
     2    31    24    1
     3    24    25    1
     4    25    26    1
     5    26    27    1
     6    27    28    1
     7    28    29    1
     8    29    22    1
     9     1    22    1
    10     1     2    1
    11     3     2    1
    12     3     4    1
    13     4     5    1
    14     5     6    1
    15     6     7    1
    16     7     9    1
    17     9    10    2
    18     9    11   am
    19    11    12    1
    20    12    13    1
    21    13    14    1
    22    14    15   ar
    23    15    16   ar
    24    16    17   ar
    25    17    18    1
    26    17    19   ar
    27    19    20   ar
    28    20    21    1
    29     7     8    1
    30    29    24    1
    31     8     1    1
    32     7     3    1
    33    21    11    1
    34    20    14   ar
    35    22    23    1
@<TRIPOS>MOLECULE
*****
 31 35 0 0 0
SMALL
GASTEIGER

@<TRIPOS>ATOM
      1 C         141.1734  141.9971  161.9915 C.3     1  UNL1        0.0545
      2 C         140.8744  143.4540  161.7966 C.3     1  UNL1        0.0162
      3 C         139.5665  143.7527  162.4676 C.3     1  UNL1        0.0095
      4 C         138.5734  144.8376  162.7618 C.3     1  UNL1        0.0005
      5 C         137.4502  144.2358  163.5532 C.3     1  UNL1        0.0005
      6 C         137.7492  142.7789  163.7481 C.3     1  UNL1        0.0087
      7 C         139.0571  142.4802  163.0772 C.3     1  UNL1        0.0704
      8 C         140.0502  141.3953  162.7830 C.3     1  UNL1        0.0243
      9 C         138.5477  141.2079  163.6867 C.2     1  UNL1        0.2250
     10 O         137.6879  140.2811  162.8794 O.2     1  UNL1       -0.2749
     11 N         138.8982  140.8622  165.1037 N.am    1  UNL1       -0.2750
     12 C         138.3888  139.5899  165.7133 C.3     1  UNL1        0.1000
     13 C         138.7393  139.2443  167.1302 C.3     1  UNL1        0.0670
     14 C         139.5991  140.1711  167.9376 C.ar    1  UNL1        0.0584
     15 N         139.9496  139.8254  169.3546 N.ar    1  UNL1       -0.2475
     16 C         140.8094  140.7522  170.1619 C.ar    1  UNL1        0.1097
     17 C         141.3188  142.0246  169.5523 C.ar    1  UNL1        0.0765
     18 CL        142.1786  142.9513  170.3596 Cl      1  UNL1       -0.0806
     19 C         140.9683  142.3702  168.1353 C.ar    1  UNL1        0.0115
     20 C         140.1085  141.4434  167.3280 C.ar    1  UNL1        0.0122
     21 C         139.7580  141.7890  165.9111 C.3     1  UNL1        0.1213
     22 N         142.3831  141.2697  161.4841 N.3     1  UNL1       -0.2975
     23 H         142.0536  140.3867  161.0940 H       1  UNL1        0.1232
     24 C         144.5901  141.9409  162.6794 C.3     1  UNL1        0.1591
     25 C         145.7129  141.6080  163.6166 C.3     1  UNL1        0.1729
     26 O         145.7518  140.2711  164.2957 O.3     1  UNL1       -0.3511
     27 C         144.6677  139.2670  164.0375 C.3     1  UNL1        0.1437
     28 C         143.5448  139.5998  163.1003 C.3     1  UNL1        0.0503
     29 C         143.5060  140.9368  162.4213 C.3     1  UNL1        0.0865
     30 C         144.1323  144.4968  162.7676 C.3     1  UNL1        0.1742
     31 O         144.5512  143.2778  162.0004 O.3     1  UNL1       -0.3496
@<TRIPOS>BOND
     1    30    31    1
     2    31    24    1
     3    24    25    1
     4    25    26    1
     5    26    27    1
     6    27    28    1
     7    28    29    1
     8    29    22    1
     9     1    22    1
    10     1     2    1
    11     3     2    1
    12     3     4    1
    13     4     5    1
    14     5     6    1
    15     6     7    1
    16     7     9    1
    17     9    10    2
    18     9    11   am
    19    11    12    1
    20    12    13    1
    21    13    14    1
    22    14    15   ar
    23    15    16   ar
    24    16    17   ar
    25    17    18    1
    26    17    19   ar
    27    19    20   ar
    28    20    21    1
    29     7     8    1
    30    29    24    1
    31     8     1    1
    32     7     3    1
    33    21    11    1
    34    20    14   ar
    35    22    23    1
@<TRIPOS>MOLECULE
*****
 31 35 0 0 0
SMALL
GASTEIGER

@<TRIPOS>ATOM
      1 C         139.4493  139.4321  166.4426 C.3     1  UNL1        0.0545
      2 C         139.0256  139.8032  167.8328 C.3     1  UNL1        0.0162
      3 C         140.2629  140.0447  168.6456 C.3     1  UNL1        0.0095
      4 C         140.7658  140.4233  170.0071 C.3     1  UNL1        0.0005
      5 C         142.2651  140.4354  169.9607 C.3     1  UNL1        0.0005
      6 C         142.6888  140.0643  168.5705 C.3     1  UNL1        0.0087
      7 C         141.4514  139.8228  167.7577 C.3     1  UNL1        0.0704
      8 C         140.9485  139.4442  166.3962 C.3     1  UNL1        0.0243
      9 C         142.6398  139.6010  166.8698 C.2     1  UNL1        0.2250
     10 O         143.5708  138.4552  167.1351 O.2     1  UNL1       -0.2749
     11 N         142.8973  140.5249  165.7165 N.am    1  UNL1       -0.2750
     12 C         144.0857  140.3031  164.8286 C.3     1  UNL1        0.1000
     13 C         144.3431  141.2270  163.6754 C.3     1  UNL1        0.0670
     14 C         143.4122  142.3728  163.4100 C.ar    1  UNL1        0.0584
     15 N         143.6696  143.2968  162.2567 N.ar    1  UNL1       -0.2475
     16 C         142.7386  144.4426  161.9914 C.ar    1  UNL1        0.1097
     17 C         141.5502  144.6644  162.8794 C.ar    1  UNL1        0.0765
     18 CL        140.6192  145.8103  162.6140 Cl      1  UNL1       -0.0806
     19 C         141.2928  143.7405  164.0326 C.ar    1  UNL1        0.0115
     20 C         142.2237  142.5947  164.2979 C.ar    1  UNL1        0.0122
     21 C         141.9663  141.6707  165.4512 C.3     1  UNL1        0.1213
     22 N         138.5344  139.1060  165.2995 N.3     1  UNL1       -0.2975
     23 H         138.9629  138.3328  164.7906 H       1  UNL1        0.1232
     24 C         138.0173  139.7808  162.8444 C.3     1  UNL1        0.1591
     25 C         137.6804  140.8330  161.8298 C.3     1  UNL1        0.1729
     26 O         137.5237  142.2627  162.2557 O.3     1  UNL1       -0.3511
     27 C         137.7039  142.6402  163.6963 C.3     1  UNL1        0.1437
     28 C         138.0408  141.5880  164.7109 C.3     1  UNL1        0.0503
     29 C         138.1975  140.1582  164.2849 C.3     1  UNL1        0.0865
     30 C         139.1897  137.9859  161.3768 C.3     1  UNL1        0.1742
     31 O         138.1741  138.3511  162.4185 O.3     1  UNL1       -0.3496
@<TRIPOS>BOND
     1    30    31    1
     2    31    24    1
     3    24    25    1
     4    25    26    1
     5    26    27    1
     6    27    28    1
     7    28    29    1
     8    29    22    1
     9     1    22    1
    10     1     2    1
    11     3     2    1
    12     3     4    1
    13     4     5    1
    14     5     6    1
    15     6     7    1
    16     7     9    1
    17     9    10    2
    18     9    11   am
    19    11    12    1
    20    12    13    1
    21    13    14    1
    22    14    15   ar
    23    15    16   ar
    24    16    17   ar
    25    17    18    1
    26    17    19   ar
    27    19    20   ar
    28    20    21    1
    29     7     8    1
    30    29    24    1
    31     8     1    1
    32     7     3    1
    33    21    11    1
    34    20    14   ar
    35    22    23    1
@<TRIPOS>MOLECULE
*****
 31 35 0 0 0
SMALL
GASTEIGER

@<TRIPOS>ATOM
      1 C         142.4921  143.1065  163.0982 C.3     1  UNL1        0.0545
      2 C         143.9776  143.1699  163.2964 C.3     1  UNL1        0.0162
      3 C         144.4549  141.7968  163.6662 C.3     1  UNL1        0.0095
      4 C         145.6680  140.9874  164.0173 C.3     1  UNL1        0.0005
      5 C         145.2272  139.5751  164.2646 C.3     1  UNL1        0.0005
      6 C         143.7417  139.5116  164.0664 C.3     1  UNL1        0.0087
      7 C         143.2644  140.8847  163.6966 C.3     1  UNL1        0.0704
      8 C         142.0514  141.6942  163.3455 C.3     1  UNL1        0.0243
      9 C         142.0739  139.9727  163.7270 C.2     1  UNL1        0.2250
     10 O         141.7311  139.1466  162.5228 O.2     1  UNL1       -0.2749
     11 N         141.2262  139.8868  164.9615 N.am    1  UNL1       -0.2750
     12 C         140.0357  138.9748  164.9919 C.3     1  UNL1        0.1000
     13 C         139.1881  138.8890  166.2264 C.3     1  UNL1        0.0670
     14 C         139.5309  139.7151  167.4305 C.ar    1  UNL1        0.0584
     15 N         138.6832  139.6293  168.6651 N.ar    1  UNL1       -0.2475
     16 C         139.0260  140.4554  169.8692 C.ar    1  UNL1        0.1097
     17 C         140.2165  141.3674  169.8388 C.ar    1  UNL1        0.0765
     18 CL        140.5594  142.1936  171.0429 Cl      1  UNL1       -0.0806
     19 C         141.0642  141.4533  168.6043 C.ar    1  UNL1        0.0115
     20 C         140.7214  140.6271  167.4002 C.ar    1  UNL1        0.0122
     21 C         141.5690  140.7130  166.1657 C.3     1  UNL1        0.1213
     22 N         141.6034  144.2539  162.7192 N.3     1  UNL1       -0.2975
     23 H         142.0982  145.1075  162.9778 H       1  UNL1        0.1232
     24 C         139.0236  144.1663  162.4242 C.3     1  UNL1        0.1591
     25 C         137.6452  144.2715  163.0064 C.3     1  UNL1        0.1729
     26 O         137.4682  144.5693  164.4658 O.3     1  UNL1       -0.3511
     27 C         138.6696  144.7620  165.3431 C.3     1  UNL1        0.1437
     28 C         140.0480  144.6569  164.7609 C.3     1  UNL1        0.0503
     29 C         140.2250  144.3590  163.3014 C.3     1  UNL1        0.0865
     30 C         138.6729  142.5867  160.3915 C.3     1  UNL1        0.1742
     31 O         139.2006  143.8685  160.9648 O.3     1  UNL1       -0.3496
@<TRIPOS>BOND
     1    30    31    1
     2    31    24    1
     3    24    25    1
     4    25    26    1
     5    26    27    1
     6    27    28    1
     7    28    29    1
     8    29    22    1
     9     1    22    1
    10     1     2    1
    11     3     2    1
    12     3     4    1
    13     4     5    1
    14     5     6    1
    15     6     7    1
    16     7     9    1
    17     9    10    2
    18     9    11   am
    19    11    12    1
    20    12    13    1
    21    13    14    1
    22    14    15   ar
    23    15    16   ar
    24    16    17   ar
    25    17    18    1
    26    17    19   ar
    27    19    20   ar
    28    20    21    1
    29     7     8    1
    30    29    24    1
    31     8     1    1
    32     7     3    1
    33    21    11    1
    34    20    14   ar
    35    22    23    1
@<TRIPOS>MOLECULE
*****
 31 35 0 0 0
SMALL
GASTEIGER

@<TRIPOS>ATOM
      1 C         139.2061  138.3591  165.0118 C.3     1  UNL1        0.0545
      2 C         138.3616  138.6777  166.2098 C.3     1  UNL1        0.0162
      3 C         139.2059  139.4495  167.1801 C.3     1  UNL1        0.0095
      4 C         139.2059  140.1234  168.5202 C.3     1  UNL1        0.0005
      5 C         140.5721  140.6983  168.7500 C.3     1  UNL1        0.0005
      6 C         141.4166  140.3798  167.5519 C.3     1  UNL1        0.0087
      7 C         140.5723  139.6079  166.5817 C.3     1  UNL1        0.0704
      8 C         140.5723  138.9341  165.2416 C.3     1  UNL1        0.0243
      9 C         141.9386  139.7664  165.9833 C.2     1  UNL1        0.2250
     10 O         143.0348  138.8119  166.3535 O.2     1  UNL1       -0.2749
     11 N         142.2086  140.8794  165.0145 N.am    1  UNL1       -0.2750
     12 C         143.5749  141.0378  164.4161 C.3     1  UNL1        0.1000
     13 C         143.8449  142.1508  163.4474 C.3     1  UNL1        0.0670
     14 C         142.7487  143.1053  163.0772 C.ar    1  UNL1        0.0584
     15 N         143.0187  144.2183  162.1084 N.ar    1  UNL1       -0.2475
     16 C         141.9225  145.1728  161.7382 C.ar    1  UNL1        0.1097
     17 C         140.5561  145.0143  162.3366 C.ar    1  UNL1        0.0765
     18 CL        139.4599  145.9688  161.9664 Cl      1  UNL1       -0.0806
     19 C         140.2861  143.9014  163.3053 C.ar    1  UNL1        0.0115
     20 C         141.3824  142.9468  163.6756 C.ar    1  UNL1        0.0122
     21 C         141.1124  141.8339  164.6443 C.3     1  UNL1        0.1213
     22 N         138.7622  137.5990  163.7971 N.3     1  UNL1       -0.2975
     23 H         139.3276  136.7510  163.7575 H       1  UNL1        0.1232
     24 C         140.0811  138.0763  161.6101 C.3     1  UNL1        0.1591
     25 C         140.1623  138.7144  160.2551 C.3     1  UNL1        0.1729
     26 O         139.0056  139.5133  159.7318 O.3     1  UNL1       -0.3511
     27 C         137.7677  139.6742  160.5637 C.3     1  UNL1        0.1437
     28 C         137.6866  139.0361  161.9188 C.3     1  UNL1        0.0503
     29 C         138.8434  138.2371  162.4420 C.3     1  UNL1        0.0865
     30 C         142.5522  137.9483  162.4023 C.3     1  UNL1        0.1742
     31 O         141.2378  137.2774  162.1334 O.3     1  UNL1       -0.3496
@<TRIPOS>BOND
     1    30    31    1
     2    31    24    1
     3    24    25    1
     4    25    26    1
     5    26    27    1
     6    27    28    1
     7    28    29    1
     8    29    22    1
     9     1    22    1
    10     1     2    1
    11     3     2    1
    12     3     4    1
    13     4     5    1
    14     5     6    1
    15     6     7    1
    16     7     9    1
    17     9    10    2
    18     9    11   am
    19    11    12    1
    20    12    13    1
    21    13    14    1
    22    14    15   ar
    23    15    16   ar
    24    16    17   ar
    25    17    18    1
    26    17    19   ar
    27    19    20   ar
    28    20    21    1
    29     7     8    1
    30    29    24    1
    31     8     1    1
    32     7     3    1
    33    21    11    1
    34    20    14   ar
    35    22    23    1
@<TRIPOS>MOLECULE
*****
 31 35 0 0 0
SMALL
GASTEIGER

@<TRIPOS>ATOM
      1 C         141.9567  140.3293  166.6756 C.3     1  UNL1        0.0545
      2 C         142.5641  139.0244  166.2531 C.3     1  UNL1        0.0162
      3 C         141.6170  138.3599  165.2983 C.3     1  UNL1        0.0095
      4 C         141.4070  137.1428  164.4471 C.3     1  UNL1        0.0005
      5 C         140.0846  137.2848  163.7535 C.3     1  UNL1        0.0005
      6 C         139.4773  138.5896  164.1760 C.3     1  UNL1        0.0087
      7 C         140.4243  139.2541  165.1308 C.3     1  UNL1        0.0704
      8 C         140.6343  140.4712  165.9820 C.3     1  UNL1        0.0243
      9 C         139.2317  140.1482  164.9633 C.2     1  UNL1        0.2250
     10 O         138.0492  139.9999  165.8742 O.2     1  UNL1       -0.2749
     11 N         139.2215  141.1908  163.8848 N.am    1  UNL1       -0.2750
     12 C         138.0289  142.0849  163.7173 C.3     1  UNL1        0.1000
     13 C         138.0187  143.1274  162.6389 C.3     1  UNL1        0.0670
     14 C         139.2012  143.2758  161.7279 C.ar    1  UNL1        0.0584
     15 N         139.1910  144.3184  160.6495 N.ar    1  UNL1       -0.2475
     16 C         140.3735  144.4667  159.7386 C.ar    1  UNL1        0.1097
     17 C         141.5661  143.5725  159.9061 C.ar    1  UNL1        0.0765
     18 CL        142.7486  143.7209  158.9952 Cl      1  UNL1       -0.0806
     19 C         141.5763  142.5300  160.9846 C.ar    1  UNL1        0.0115
     20 C         140.3938  142.3817  161.8955 C.ar    1  UNL1        0.0122
     21 C         140.4040  141.3392  162.9739 C.3     1  UNL1        0.1213
     22 N         142.5650  141.3185  167.6251 N.3     1  UNL1       -0.2975
     23 H         143.4686  140.9387  167.9071 H       1  UNL1        0.1232
     24 C         142.1508  140.9812  170.1676 C.3     1  UNL1        0.1591
     25 C         141.4264  141.3554  171.4267 C.3     1  UNL1        0.1729
     26 O         140.3918  142.4411  171.4022 O.3     1  UNL1       -0.3511
     27 C         140.0815  143.1527  170.1187 C.3     1  UNL1        0.1437
     28 C         140.8059  142.7785  168.8596 C.3     1  UNL1        0.0503
     29 C         141.8406  141.6927  168.8841 C.3     1  UNL1        0.0865
     30 C         142.7717  138.4616  170.0414 C.3     1  UNL1        0.1742
     31 O         143.1855  139.8955  170.1921 O.3     1  UNL1       -0.3496
@<TRIPOS>BOND
     1    30    31    1
     2    31    24    1
     3    24    25    1
     4    25    26    1
     5    26    27    1
     6    27    28    1
     7    28    29    1
     8    29    22    1
     9     1    22    1
    10     1     2    1
    11     3     2    1
    12     3     4    1
    13     4     5    1
    14     5     6    1
    15     6     7    1
    16     7     9    1
    17     9    10    2
    18     9    11   am
    19    11    12    1
    20    12    13    1
    21    13    14    1
    22    14    15   ar
    23    15    16   ar
    24    16    17   ar
    25    17    18    1
    26    17    19   ar
    27    19    20   ar
    28    20    21    1
    29     7     8    1
    30    29    24    1
    31     8     1    1
    32     7     3    1
    33    21    11    1
    34    20    14   ar
    35    22    23    1
@<TRIPOS>MOLECULE
*****
 31 35 0 0 0
SMALL
GASTEIGER

@<TRIPOS>ATOM
      1 C         139.5441  142.4158  163.8015 C.3     1  UNL1        0.0545
      2 C         139.5978  143.9144  163.7659 C.3     1  UNL1        0.0162
      3 C         141.0400  144.3263  163.7505 C.3     1  UNL1        0.0095
      4 C         141.9646  145.5070  163.7190 C.3     1  UNL1        0.0005
      5 C         143.3737  144.9927  163.7256 C.3     1  UNL1        0.0005
      6 C         143.3200  143.4941  163.7611 C.3     1  UNL1        0.0087
      7 C         141.8777  143.0822  163.7765 C.3     1  UNL1        0.0704
      8 C         140.9532  141.9015  163.8080 C.3     1  UNL1        0.0243
      9 C         142.7153  141.8382  163.8026 C.2     1  UNL1        0.2250
     10 O         143.4590  141.4088  162.5727 O.2     1  UNL1       -0.2749
     11 N         142.8094  141.0235  165.0586 N.am    1  UNL1       -0.2750
     12 C         143.6470  139.7794  165.0846 C.3     1  UNL1        0.1000
     13 C         143.7410  138.9648  166.3406 C.3     1  UNL1        0.0670
     14 C         142.9973  139.3941  167.5705 C.ar    1  UNL1        0.0584
     15 N         143.0913  138.5794  168.8265 N.ar    1  UNL1       -0.2475
     16 C         142.3477  139.0088  170.0563 C.ar    1  UNL1        0.1097
     17 C         141.5100  140.2529  170.0302 C.ar    1  UNL1        0.0765
     18 CL        140.7664  140.6823  171.2601 Cl      1  UNL1       -0.0806
     19 C         141.4161  141.0675  168.7743 C.ar    1  UNL1        0.0115
     20 C         142.1597  140.6382  167.5444 C.ar    1  UNL1        0.0122
     21 C         142.0657  141.4528  166.2885 C.3     1  UNL1        0.1213
     22 N         138.2997  141.5785  163.8261 N.3     1  UNL1       -0.2975
     23 H         137.6362  142.0549  164.4370 H       1  UNL1        0.1232
     24 C         138.6421  139.0577  163.2986 C.3     1  UNL1        0.1591
     25 C         138.7069  137.6314  163.7585 C.3     1  UNL1        0.1729
     26 O         138.4942  137.2996  165.2057 O.3     1  UNL1       -0.3511
     27 C         138.2167  138.3941  166.1932 C.3     1  UNL1        0.1437
     28 C         138.1518  139.8204  165.7333 C.3     1  UNL1        0.0503
     29 C         138.3646  140.1522  164.2860 C.3     1  UNL1        0.0865
     30 C         139.2181  138.3064  160.8791 C.3     1  UNL1        0.1742
     31 O         138.8548  139.3895  161.8513 O.3     1  UNL1       -0.3496
@<TRIPOS>BOND
     1    30    31    1
     2    31    24    1
     3    24    25    1
     4    25    26    1
     5    26    27    1
     6    27    28    1
     7    28    29    1
     8    29    22    1
     9     1    22    1
    10     1     2    1
    11     3     2    1
    12     3     4    1
    13     4     5    1
    14     5     6    1
    15     6     7    1
    16     7     9    1
    17     9    10    2
    18     9    11   am
    19    11    12    1
    20    12    13    1
    21    13    14    1
    22    14    15   ar
    23    15    16   ar
    24    16    17   ar
    25    17    18    1
    26    17    19   ar
    27    19    20   ar
    28    20    21    1
    29     7     8    1
    30    29    24    1
    31     8     1    1
    32     7     3    1
    33    21    11    1
    34    20    14   ar
    35    22    23    1
@<TRIPOS>MOLECULE
*****
 31 35 0 0 0
SMALL
GASTEIGER

@<TRIPOS>ATOM
      1 C         142.1030  138.4121  164.1385 C.3     1  UNL1        0.0545
      2 C         141.0502  137.3440  164.1656 C.3     1  UNL1        0.0162
      3 C         139.8990  137.8484  164.9843 C.3     1  UNL1        0.0095
      4 C         138.5369  137.5001  165.5071 C.3     1  UNL1        0.0005
      5 C         138.0365  138.6647  166.3092 C.3     1  UNL1        0.0005
      6 C         139.0893  139.7328  166.2821 C.3     1  UNL1        0.0087
      7 C         140.2404  139.2283  165.4633 C.3     1  UNL1        0.0704
      8 C         141.6025  139.5766  164.9406 C.3     1  UNL1        0.0243
      9 C         140.5818  140.6082  165.9423 C.2     1  UNL1        0.2250
     10 O         140.9592  140.8322  167.3767 O.2     1  UNL1       -0.2749
     11 N         140.5458  141.7641  164.9869 N.am    1  UNL1       -0.2750
     12 C         140.8872  143.1439  165.4659 C.3     1  UNL1        0.1000
     13 C         140.8512  144.2997  164.5105 C.3     1  UNL1        0.0670
     14 C         140.4737  144.0756  163.0761 C.ar    1  UNL1        0.0584
     15 N         140.4377  145.2315  162.1207 N.ar    1  UNL1       -0.2475
     16 C         140.0603  145.0075  160.6864 C.ar    1  UNL1        0.1097
     17 C         139.7189  143.6275  160.2075 C.ar    1  UNL1        0.0765
     18 CL        139.3414  143.4035  158.7731 Cl      1  UNL1       -0.0806
     19 C         139.7549  142.4718  161.1628 C.ar    1  UNL1        0.0115
     20 C         140.1323  142.6958  162.5972 C.ar    1  UNL1        0.0122
     21 C         140.1684  141.5400  163.5526 C.3     1  UNL1        0.1213
     22 N         143.4243  138.3300  163.4332 N.3     1  UNL1       -0.2975
     23 H         144.0454  137.7877  164.0336 H       1  UNL1        0.1232
     24 C         143.9644  140.2063  161.7192 C.3     1  UNL1        0.1591
     25 C         144.7002  141.4621  161.3567 C.3     1  UNL1        0.1729
     26 O         145.6320  142.0974  162.3457 O.3     1  UNL1       -0.3511
     27 C         145.8279  141.4770  163.6973 C.3     1  UNL1        0.1437
     28 C         145.0920  140.2212  164.0598 C.3     1  UNL1        0.0503
     29 C         144.1602  139.5858  163.0707 C.3     1  UNL1        0.0865
     30 C         142.3123  140.4205  159.7255 C.3     1  UNL1        0.1742
     31 O         143.0326  139.5709  160.7302 O.3     1  UNL1       -0.3496
@<TRIPOS>BOND
     1    30    31    1
     2    31    24    1
     3    24    25    1
     4    25    26    1
     5    26    27    1
     6    27    28    1
     7    28    29    1
     8    29    22    1
     9     1    22    1
    10     1     2    1
    11     3     2    1
    12     3     4    1
    13     4     5    1
    14     5     6    1
    15     6     7    1
    16     7     9    1
    17     9    10    2
    18     9    11   am
    19    11    12    1
    20    12    13    1
    21    13    14    1
    22    14    15   ar
    23    15    16   ar
    24    16    17   ar
    25    17    18    1
    26    17    19   ar
    27    19    20   ar
    28    20    21    1
    29     7     8    1
    30    29    24    1
    31     8     1    1
    32     7     3    1
    33    21    11    1
    34    20    14   ar
    35    22    23    1
@<TRIPOS>MOLECULE
*****
 31 35 0 0 0
SMALL
GASTEIGER

@<TRIPOS>ATOM
      1 C         140.3912  141.5678  161.3053 C.3     1  UNL1        0.0545
      2 C         138.9620  141.1410  161.1471 C.3     1  UNL1        0.0162
      3 C         138.8231  139.7633  161.7238 C.3     1  UNL1        0.0095
      4 C         137.8539  138.6481  161.9825 C.3     1  UNL1        0.0005
      5 C         138.5984  137.5341  162.6570 C.3     1  UNL1        0.0005
      6 C         140.0276  137.9609  162.8153 C.3     1  UNL1        0.0087
      7 C         140.1665  139.3386  162.2385 C.3     1  UNL1        0.0704
      8 C         141.1357  140.4539  161.9798 C.3     1  UNL1        0.0243
      9 C         141.5099  138.9140  162.7532 C.2     1  UNL1        0.2250
     10 O         142.5454  138.3892  161.8033 O.2     1  UNL1       -0.2749
     11 N         141.8179  139.0142  164.2179 N.am    1  UNL1       -0.2750
     12 C         143.1613  138.5895  164.7325 C.3     1  UNL1        0.1000
     13 C         143.4692  138.6897  166.1971 C.3     1  UNL1        0.0670
     14 C         142.4337  139.2145  167.1471 C.ar    1  UNL1        0.0584
     15 N         142.7417  139.3147  168.6117 N.ar    1  UNL1       -0.2475
     16 C         141.7062  139.8395  169.5617 C.ar    1  UNL1        0.1097
     17 C         140.3628  140.2641  169.0469 C.ar    1  UNL1        0.0765
     18 CL        139.3273  140.7889  169.9968 Cl      1  UNL1       -0.0806
     19 C         140.0549  140.1639  167.5823 C.ar    1  UNL1        0.0115
     20 C         141.0903  139.6391  166.6324 C.ar    1  UNL1        0.0122
     21 C         140.7824  139.5390  165.1678 C.3     1  UNL1        0.1213
     22 N         140.9738  142.8785  160.8661 N.3     1  UNL1       -0.2975
     23 H         141.4631  142.7039  159.9883 H       1  UNL1        0.1232
     24 C         143.4004  143.3077  161.6891 C.3     1  UNL1        0.1591
     25 C         144.3594  144.0387  162.5812 C.3     1  UNL1        0.1729
     26 O         143.8507  145.0716  163.5426 O.3     1  UNL1       -0.3511
     27 C         142.3830  145.3735  163.6118 C.3     1  UNL1        0.1437
     28 C         141.4240  144.6425  162.7197 C.3     1  UNL1        0.0503
     29 C         141.9328  143.6095  161.7583 C.3     1  UNL1        0.0865
     30 C         144.3399  142.6806  159.3493 C.3     1  UNL1        0.1742
     31 O         143.9091  142.2747  160.7277 O.3     1  UNL1       -0.3496
@<TRIPOS>BOND
     1    30    31    1
     2    31    24    1
     3    24    25    1
     4    25    26    1
     5    26    27    1
     6    27    28    1
     7    28    29    1
     8    29    22    1
     9     1    22    1
    10     1     2    1
    11     3     2    1
    12     3     4    1
    13     4     5    1
    14     5     6    1
    15     6     7    1
    16     7     9    1
    17     9    10    2
    18     9    11   am
    19    11    12    1
    20    12    13    1
    21    13    14    1
    22    14    15   ar
    23    15    16   ar
    24    16    17   ar
    25    17    18    1
    26    17    19   ar
    27    19    20   ar
    28    20    21    1
    29     7     8    1
    30    29    24    1
    31     8     1    1
    32     7     3    1
    33    21    11    1
    34    20    14   ar
    35    22    23    1
