@<TRIPOS>MOLECULE
*****
 36 39 0 0 0
SMALL
GASTEIGER

@<TRIPOS>ATOM
      1 C         142.2011  141.1882  168.3864 C.3     1  UNL1        0.0705
      2 C         143.0050  141.8181  169.4849 C.3     1  UNL1        0.0082
      3 C         142.4853  143.0348  170.1917 C.3     1  UNL1        0.0005
      4 C         141.1616  143.6216  169.7999 C.3     1  UNL1        0.0005
      5 C         140.3577  142.9917  168.7013 C.3     1  UNL1        0.0095
      6 C         140.8774  141.7751  167.9945 C.3     1  UNL1        0.0840
      7 C         140.0734  141.1452  166.8960 C.2     1  UNL1        0.2261
      8 O         139.3162  139.8761  167.1536 O.2     1  UNL1       -0.2748
      9 N         140.0266  141.7843  165.5398 N.am    1  UNL1       -0.2814
     10 H         140.5235  142.6171  165.3707 H       1  UNL1        0.1549
     11 C         139.2226  141.1544  164.4412 C.ar    1  UNL1        0.0934
     12 C         139.2756  139.7145  164.0241 C.ar    1  UNL1        0.1115
     13 N         138.3103  139.5240  162.8919 N.ar    1  UNL1       -0.2459
     14 C         138.0417  138.2373  162.1693 C.3     1  UNL1        0.1538
     15 N         137.6606  140.8462  162.6093 N.ar    1  UNL1       -0.1632
     16 C         138.2245  141.8538  163.5667 C.ar    1  UNL1        0.1686
     17 C         137.8551  143.3059  163.6374 C.2     1  UNL1        0.2635
     18 N         137.5631  144.0676  162.3787 N.am    1  UNL1       -0.3240
     19 O         137.7777  143.9963  164.9669 O.2     1  UNL1       -0.2686
     20 H         137.6139  143.6145  161.5061 H       1  UNL1        0.1453
     21 H         137.3206  145.0206  162.4251 H       1  UNL1        0.1453
     22 C         142.7208  139.9715  167.6796 C.2     1  UNL1        0.1731
     23 O         143.0097  138.7201  168.4545 O.2     1  UNL1       -0.2913
     24 C         143.4132  140.0756  163.2344 C.ar    1  UNL1        0.0194
     25 C         143.7191  141.2835  164.0696 C.ar    1  UNL1        0.0016
     26 C         143.4883  141.2487  165.5513 C.ar    1  UNL1        0.0029
     27 C         142.9516  140.0062  166.1978 C.ar    1  UNL1        0.0347
     28 C         142.6456  138.7984  165.3626 C.ar    1  UNL1        0.0029
     29 C         142.8764  138.8331  163.8809 C.ar    1  UNL1        0.0016
     30 C         144.0331  141.8163  158.2880 C.3     1  UNL1        0.0515
     31 C         143.9289  140.9105  159.4790 C.ar    1  UNL1        0.0535
     32 C         143.6660  141.3389  160.8923 C.ar    1  UNL1        0.0349
     33 C         143.6440  140.1103  161.7526 C.ar    1  UNL1        0.1018
     34 N         143.8932  138.9226  160.8711 N.ar    1  UNL1       -0.1730
     35 N         144.0693  139.4170  159.4659 N.ar    1  UNL1       -0.2798
     36 H         144.2460  138.8594  158.6741 H       1  UNL1        0.1886
@<TRIPOS>BOND
     1    30    31    1
     2    31    32   ar
     3    32    33   ar
     4    33    24    1
     5    24    25   ar
     6    25    26   ar
     7    26    27   ar
     8    27    22    1
     9    22    23    2
    10     1    22    1
    11     1     2    1
    12     2     3    1
    13     3     4    1
    14     4     5    1
    15     5     6    1
    16     6     7    1
    17     7     8    2
    18     7     9   am
    19     9    11    1
    20    11    12   ar
    21    12    13   ar
    22    13    14    1
    23    13    15   ar
    24    15    16   ar
    25    16    17    1
    26    17    18   am
    27    17    19    2
    28    27    28   ar
    29    28    29   ar
    30    33    34   ar
    31    34    35   ar
    32    35    31   ar
    33    29    24   ar
    34     6     1    1
    35    16    11   ar
    36     9    10    1
    37    18    20    1
    38    18    21    1
    39    35    36    1
@<TRIPOS>MOLECULE
*****
 36 39 0 0 0
SMALL
GASTEIGER

@<TRIPOS>ATOM
      1 C         140.2007  140.0114  167.8903 C.3     1  UNL1        0.0705
      2 C         139.9250  140.1939  169.3534 C.3     1  UNL1        0.0082
      3 C         141.0343  140.0375  170.3509 C.3     1  UNL1        0.0005
      4 C         142.4193  139.6985  169.8853 C.3     1  UNL1        0.0005
      5 C         142.6951  139.5159  168.4223 C.3     1  UNL1        0.0095
      6 C         141.5858  139.6724  167.4247 C.3     1  UNL1        0.0840
      7 C         141.8616  139.4898  165.9617 C.2     1  UNL1        0.2261
      8 O         142.6563  140.5193  165.2141 O.2     1  UNL1       -0.2748
      9 N         141.3427  138.2780  165.2461 N.am    1  UNL1       -0.2814
     10 H         140.8211  137.6024  165.7368 H       1  UNL1        0.1549
     11 C         141.6184  138.0954  163.7830 C.ar    1  UNL1        0.0934
     12 C         142.9624  138.1787  163.1220 C.ar    1  UNL1        0.1115
     13 N         142.7732  137.9323  161.6545 N.ar    1  UNL1       -0.2459
     14 C         143.8550  137.9230  160.6155 C.3     1  UNL1        0.1538
     15 N         141.3124  137.6967  161.4086 N.ar    1  UNL1       -0.1632
     16 C         140.5987  137.7976  162.7241 C.ar    1  UNL1        0.1686
     17 C         139.1242  137.6300  162.9422 C.2     1  UNL1        0.2635
     18 N         138.1799  137.7117  161.7797 N.am    1  UNL1       -0.3240
     19 O         138.5938  137.3807  164.3231 O.2     1  UNL1       -0.2686
     20 H         138.5279  137.8753  160.8734 H       1  UNL1        0.1453
     21 H         137.2121  137.6017  161.9230 H       1  UNL1        0.1453
     22 C         139.0915  140.1678  166.8928 C.2     1  UNL1        0.1731
     23 O         137.8594  139.3192  167.0019 O.2     1  UNL1       -0.2913
     24 C         139.4598  143.1829  163.5726 C.ar    1  UNL1        0.0194
     25 C         138.8090  141.8568  163.3126 C.ar    1  UNL1        0.0016
     26 C         138.6862  140.8518  164.4193 C.ar    1  UNL1        0.0029
     27 C         139.2143  141.1729  165.7860 C.ar    1  UNL1        0.0347
     28 C         139.8651  142.4991  166.0461 C.ar    1  UNL1        0.0029
     29 C         139.9879  143.5041  164.9394 C.ar    1  UNL1        0.0016
     30 C         140.9417  145.5794  159.1070 C.3     1  UNL1        0.0515
     31 C         140.2638  145.2895  160.4132 C.ar    1  UNL1        0.0535
     32 C         140.4511  144.0587  161.2498 C.ar    1  UNL1        0.0349
     33 C         139.5826  144.1880  162.4659 C.ar    1  UNL1        0.1018
     34 N         138.8584  145.4989  162.3810 N.ar    1  UNL1       -0.1730
     35 N         139.2794  146.1797  161.1124 N.ar    1  UNL1       -0.2798
     36 H         138.9648  147.0567  160.7944 H       1  UNL1        0.1886
@<TRIPOS>BOND
     1    30    31    1
     2    31    32   ar
     3    32    33   ar
     4    33    24    1
     5    24    25   ar
     6    25    26   ar
     7    26    27   ar
     8    27    22    1
     9    22    23    2
    10     1    22    1
    11     1     2    1
    12     2     3    1
    13     3     4    1
    14     4     5    1
    15     5     6    1
    16     6     7    1
    17     7     8    2
    18     7     9   am
    19     9    11    1
    20    11    12   ar
    21    12    13   ar
    22    13    14    1
    23    13    15   ar
    24    15    16   ar
    25    16    17    1
    26    17    18   am
    27    17    19    2
    28    27    28   ar
    29    28    29   ar
    30    33    34   ar
    31    34    35   ar
    32    35    31   ar
    33    29    24   ar
    34     6     1    1
    35    16    11   ar
    36     9    10    1
    37    18    20    1
    38    18    21    1
    39    35    36    1
@<TRIPOS>MOLECULE
*****
 36 39 0 0 0
SMALL
GASTEIGER

@<TRIPOS>ATOM
      1 C         140.3013  139.7930  167.2067 C.3     1  UNL1        0.0705
      2 C         139.9459  140.1408  168.6219 C.3     1  UNL1        0.0082
      3 C         140.9850  140.0504  169.7000 C.3     1  UNL1        0.0005
      4 C         142.3794  139.6122  169.3628 C.3     1  UNL1        0.0005
      5 C         142.7347  139.2643  167.9476 C.3     1  UNL1        0.0095
      6 C         141.6957  139.3547  166.8696 C.3     1  UNL1        0.0840
      7 C         142.0511  139.0069  165.4544 C.2     1  UNL1        0.2261
      8 O         141.7598  137.6345  164.9236 O.2     1  UNL1       -0.2748
      9 N         142.6977  140.0314  164.5700 N.am    1  UNL1       -0.2814
     10 H         142.8889  140.9322  164.9184 H       1  UNL1        0.1549
     11 C         143.0530  139.6836  163.1548 C.ar    1  UNL1        0.0934
     12 C         142.3618  138.6657  162.2969 C.ar    1  UNL1        0.1115
     13 N         143.0436  138.6456  160.9609 N.ar    1  UNL1       -0.2459
     14 C         142.6770  137.7732  159.7971 C.3     1  UNL1        0.1538
     15 N         144.1562  139.6512  160.9932 N.ar    1  UNL1       -0.1632
     16 C         144.1620  140.2927  162.3491 C.ar    1  UNL1        0.1686
     17 C         145.1104  141.3564  162.8170 C.2     1  UNL1        0.2635
     18 N         145.4687  142.4944  161.9080 N.am    1  UNL1       -0.3240
     19 O         145.7004  141.2822  164.1942 O.2     1  UNL1       -0.2686
     20 H         145.0815  142.5432  161.0042 H       1  UNL1        0.1453
     21 H         146.0912  143.1926  162.2152 H       1  UNL1        0.1453
     22 C         139.2623  139.8833  166.1286 C.2     1  UNL1        0.1731
     23 O         138.1245  138.9063  166.0998 O.2     1  UNL1       -0.2913
     24 C         139.5586  143.0856  162.9810 C.ar    1  UNL1        0.0194
     25 C         139.7368  143.4377  164.4282 C.ar    1  UNL1        0.0016
     26 C         139.6380  142.3703  165.4773 C.ar    1  UNL1        0.0029
     27 C         139.3610  140.9508  165.0794 C.ar    1  UNL1        0.0347
     28 C         139.1829  140.5987  163.6322 C.ar    1  UNL1        0.0029
     29 C         139.2816  141.6662  162.5831 C.ar    1  UNL1        0.0016
     30 C         140.6575  145.6145  158.4778 C.3     1  UNL1        0.0515
     31 C         140.1625  145.3154  159.8619 C.ar    1  UNL1        0.0535
     32 C         140.2867  144.0035  160.5784 C.ar    1  UNL1        0.0349
     33 C         139.6574  144.1531  161.9318 C.ar    1  UNL1        0.1018
     34 N         139.1441  145.5574  162.0516 N.ar    1  UNL1       -0.1730
     35 N         139.4563  146.2758  160.7724 N.ar    1  UNL1       -0.2798
     36 H         139.2363  147.2131  160.5665 H       1  UNL1        0.1886
@<TRIPOS>BOND
     1    30    31    1
     2    31    32   ar
     3    32    33   ar
     4    33    24    1
     5    24    25   ar
     6    25    26   ar
     7    26    27   ar
     8    27    22    1
     9    22    23    2
    10     1    22    1
    11     1     2    1
    12     2     3    1
    13     3     4    1
    14     4     5    1
    15     5     6    1
    16     6     7    1
    17     7     8    2
    18     7     9   am
    19     9    11    1
    20    11    12   ar
    21    12    13   ar
    22    13    14    1
    23    13    15   ar
    24    15    16   ar
    25    16    17    1
    26    17    18   am
    27    17    19    2
    28    27    28   ar
    29    28    29   ar
    30    33    34   ar
    31    34    35   ar
    32    35    31   ar
    33    29    24   ar
    34     6     1    1
    35    16    11   ar
    36     9    10    1
    37    18    20    1
    38    18    21    1
    39    35    36    1
@<TRIPOS>MOLECULE
*****
 36 39 0 0 0
SMALL
GASTEIGER

@<TRIPOS>ATOM
      1 C         143.5764  141.9201  163.0301 C.3     1  UNL1        0.0705
      2 C         144.3703  143.0196  162.3891 C.3     1  UNL1        0.0082
      3 C         144.0969  144.4500  162.7489 C.3     1  UNL1        0.0005
      4 C         143.0296  144.7808  163.7495 C.3     1  UNL1        0.0005
      5 C         142.2356  143.6814  164.3905 C.3     1  UNL1        0.0095
      6 C         142.5090  142.2511  164.0308 C.3     1  UNL1        0.0840
      7 C         141.7150  141.1516  164.6717 C.2     1  UNL1        0.2261
      8 O         142.2559  140.4402  165.8766 O.2     1  UNL1       -0.2748
      9 N         140.3804  140.7635  164.1079 N.am    1  UNL1       -0.2814
     10 H         140.0254  141.2303  163.3171 H       1  UNL1        0.1549
     11 C         139.5864  139.6640  164.7489 C.ar    1  UNL1        0.0934
     12 C         138.7670  139.7820  165.9997 C.ar    1  UNL1        0.1115
     13 N         138.1466  138.4444  166.2754 N.ar    1  UNL1       -0.2459
     14 C         137.2480  138.1103  167.4290 C.3     1  UNL1        0.1538
     15 N         138.5827  137.4997  165.1950 N.ar    1  UNL1       -0.1632
     16 C         139.4725  138.2534  164.2516 C.ar    1  UNL1        0.1686
     17 C         140.1326  137.6947  163.0260 C.2     1  UNL1        0.2635
     18 N         141.4802  137.0444  163.1302 N.am    1  UNL1       -0.3240
     19 O         139.4449  137.7861  161.6959 O.2     1  UNL1       -0.2686
     20 H         141.9316  136.9843  164.0031 H       1  UNL1        0.1453
     21 H         141.9134  136.6777  162.3258 H       1  UNL1        0.1453
     22 C         143.8497  140.4898  162.6704 C.2     1  UNL1        0.1731
     23 O         144.8248  139.6863  163.4789 O.2     1  UNL1       -0.2913
     24 C         141.7448  138.6093  159.1658 C.ar    1  UNL1        0.0194
     25 C         141.2476  139.9066  159.7312 C.ar    1  UNL1        0.0016
     26 C         141.9493  140.5335  160.8994 C.ar    1  UNL1        0.0029
     27 C         143.1481  139.8629  161.5021 C.ar    1  UNL1        0.0347
     28 C         143.6452  138.5656  160.9367 C.ar    1  UNL1        0.0029
     29 C         142.9435  137.9388  159.7685 C.ar    1  UNL1        0.0016
     30 C         140.8343  136.0478  154.6390 C.3     1  UNL1        0.0515
     31 C         140.6247  136.8050  155.9168 C.ar    1  UNL1        0.0535
     32 C         141.7005  137.2698  156.8530 C.ar    1  UNL1        0.0349
     33 C         141.0431  137.9824  157.9975 C.ar    1  UNL1        0.1018
     34 N         139.5609  137.9581  157.7687 N.ar    1  UNL1       -0.1730
     35 N         139.3022  137.2305  156.4828 N.ar    1  UNL1       -0.2798
     36 H         138.4195  137.0617  156.0808 H       1  UNL1        0.1886
@<TRIPOS>BOND
     1    30    31    1
     2    31    32   ar
     3    32    33   ar
     4    33    24    1
     5    24    25   ar
     6    25    26   ar
     7    26    27   ar
     8    27    22    1
     9    22    23    2
    10     1    22    1
    11     1     2    1
    12     2     3    1
    13     3     4    1
    14     4     5    1
    15     5     6    1
    16     6     7    1
    17     7     8    2
    18     7     9   am
    19     9    11    1
    20    11    12   ar
    21    12    13   ar
    22    13    14    1
    23    13    15   ar
    24    15    16   ar
    25    16    17    1
    26    17    18   am
    27    17    19    2
    28    27    28   ar
    29    28    29   ar
    30    33    34   ar
    31    34    35   ar
    32    35    31   ar
    33    29    24   ar
    34     6     1    1
    35    16    11   ar
    36     9    10    1
    37    18    20    1
    38    18    21    1
    39    35    36    1
@<TRIPOS>MOLECULE
*****
 36 39 0 0 0
SMALL
GASTEIGER

@<TRIPOS>ATOM
      1 C         141.4598  138.7047  161.5326 C.3     1  UNL1        0.0705
      2 C         142.2597  137.5889  160.9282 C.3     1  UNL1        0.0082
      3 C         143.0760  137.8344  159.6939 C.3     1  UNL1        0.0005
      4 C         143.0925  139.1956  159.0641 C.3     1  UNL1        0.0005
      5 C         142.2926  140.3114  159.6685 C.3     1  UNL1        0.0095
      6 C         141.4763  140.0659  160.9027 C.3     1  UNL1        0.0840
      7 C         140.6765  141.1817  161.5071 C.2     1  UNL1        0.2261
      8 O         139.2084  141.2932  161.2198 O.2     1  UNL1       -0.2748
      9 N         141.3446  142.1860  162.3987 N.am    1  UNL1       -0.2814
     10 H         142.3081  142.1128  162.5872 H       1  UNL1        0.1549
     11 C         140.5448  143.3018  163.0030 C.ar    1  UNL1        0.0934
     12 C         139.8946  143.2889  164.3548 C.ar    1  UNL1        0.1115
     13 N         139.2027  144.6055  164.5490 N.ar    1  UNL1       -0.2459
     14 C         138.4248  145.0223  165.7619 C.3     1  UNL1        0.1538
     15 N         139.4252  145.4322  163.3172 N.ar    1  UNL1       -0.1632
     16 C         140.2546  144.6264  162.3618 C.ar    1  UNL1        0.1686
     17 C         140.7134  145.0678  161.0036 C.2     1  UNL1        0.2635
     18 N         142.1686  145.0040  160.6460 N.am    1  UNL1       -0.3240
     19 O         139.7167  145.5732  160.0029 O.2     1  UNL1       -0.2686
     20 H         142.8228  144.6723  161.3028 H       1  UNL1        0.1453
     21 H         142.4697  145.2937  159.7546 H       1  UNL1        0.1453
     22 C         140.6435  138.4592  162.7668 C.2     1  UNL1        0.1731
     23 O         139.3495  137.7065  162.6728 O.2     1  UNL1       -0.2913
     24 C         142.0768  139.9810  166.7518 C.ar    1  UNL1        0.0194
     25 C         143.0667  139.5003  165.7324 C.ar    1  UNL1        0.0016
     26 C         142.5889  138.9931  164.4041 C.ar    1  UNL1        0.0029
     27 C         141.1213  138.9665  164.0952 C.ar    1  UNL1        0.0347
     28 C         140.1315  139.4472  165.1146 C.ar    1  UNL1        0.0029
     29 C         140.6092  139.9544  166.4429 C.ar    1  UNL1        0.0016
     30 C         143.4944  143.2149  170.6778 C.3     1  UNL1        0.0515
     31 C         143.2061  141.9748  169.8847 C.ar    1  UNL1        0.0535
     32 C         142.7001  141.9285  168.4734 C.ar    1  UNL1        0.0349
     33 C         142.5546  140.4883  168.0802 C.ar    1  UNL1        0.1018
     34 N         142.9706  139.6444  169.2484 N.ar    1  UNL1       -0.1730
     35 N         143.3733  140.5631  170.3637 N.ar    1  UNL1       -0.2798
     36 H         143.6914  140.2879  171.2538 H       1  UNL1        0.1886
@<TRIPOS>BOND
     1    30    31    1
     2    31    32   ar
     3    32    33   ar
     4    33    24    1
     5    24    25   ar
     6    25    26   ar
     7    26    27   ar
     8    27    22    1
     9    22    23    2
    10     1    22    1
    11     1     2    1
    12     2     3    1
    13     3     4    1
    14     4     5    1
    15     5     6    1
    16     6     7    1
    17     7     8    2
    18     7     9   am
    19     9    11    1
    20    11    12   ar
    21    12    13   ar
    22    13    14    1
    23    13    15   ar
    24    15    16   ar
    25    16    17    1
    26    17    18   am
    27    17    19    2
    28    27    28   ar
    29    28    29   ar
    30    33    34   ar
    31    34    35   ar
    32    35    31   ar
    33    29    24   ar
    34     6     1    1
    35    16    11   ar
    36     9    10    1
    37    18    20    1
    38    18    21    1
    39    35    36    1
@<TRIPOS>MOLECULE
*****
 36 39 0 0 0
SMALL
GASTEIGER

@<TRIPOS>ATOM
      1 C         141.4329  140.4325  168.1153 C.3     1  UNL1        0.0705
      2 C         140.6989  139.9762  169.3414 C.3     1  UNL1        0.0082
      3 C         139.9378  140.9667  170.1719 C.3     1  UNL1        0.0005
      4 C         139.9106  142.4133  169.7764 C.3     1  UNL1        0.0005
      5 C         140.6446  142.8695  168.5503 C.3     1  UNL1        0.0095
      6 C         141.4057  141.8792  167.7198 C.3     1  UNL1        0.0840
      7 C         142.1396  142.3354  166.4938 C.2     1  UNL1        0.2261
      8 O         143.6218  142.5598  166.5470 O.2     1  UNL1       -0.2748
      9 N         141.3914  142.5673  165.2146 N.am    1  UNL1       -0.2814
     10 H         140.4186  142.4201  165.1797 H       1  UNL1        0.1549
     11 C         142.1254  143.0236  163.9886 C.ar    1  UNL1        0.0934
     12 C         143.3364  142.3701  163.3917 C.ar    1  UNL1        0.1115
     13 N         143.7367  143.1561  162.1784 N.ar    1  UNL1       -0.2459
     14 C         144.8969  142.8556  161.2764 C.3     1  UNL1        0.1538
     15 N         142.7729  144.2953  162.0254 N.ar    1  UNL1       -0.1632
     16 C         141.7771  144.2133  163.1441 C.ar    1  UNL1        0.1686
     17 C         140.6337  145.1558  163.3775 C.2     1  UNL1        0.2635
     18 N         140.4427  146.3406  162.4777 N.am    1  UNL1       -0.3240
     19 O         139.6812  144.9135  164.5107 O.2     1  UNL1       -0.2686
     20 H         141.0678  146.4997  161.7339 H       1  UNL1        0.1453
     21 H         139.6922  146.9591  162.6308 H       1  UNL1        0.1453
     22 C         142.1940  139.4421  167.2848 C.2     1  UNL1        0.1731
     23 O         143.3124  138.6521  167.8972 O.2     1  UNL1       -0.2913
     24 C         141.1221  138.8408  162.9559 C.ar    1  UNL1        0.0194
     25 C         140.0395  139.0153  163.9793 C.ar    1  UNL1        0.0016
     26 C         140.3968  139.2157  165.4223 C.ar    1  UNL1        0.0029
     27 C         141.8367  139.2416  165.8418 C.ar    1  UNL1        0.0347
     28 C         142.9193  139.0672  164.8183 C.ar    1  UNL1        0.0029
     29 C         142.5620  138.8668  163.3754 C.ar    1  UNL1        0.0016
     30 C         141.5068  138.2318  157.7250 C.3     1  UNL1        0.0515
     31 C         140.9417  138.3605  159.1085 C.ar    1  UNL1        0.0535
     32 C         141.7304  138.5687  160.3672 C.ar    1  UNL1        0.0349
     33 C         140.7648  138.6404  161.5129 C.ar    1  UNL1        0.1018
     34 N         139.3792  138.4765  160.9622 N.ar    1  UNL1       -0.1730
     35 N         139.4885  138.3035  159.4762 N.ar    1  UNL1       -0.2798
     36 H         138.7382  138.1751  158.8518 H       1  UNL1        0.1886
@<TRIPOS>BOND
     1    30    31    1
     2    31    32   ar
     3    32    33   ar
     4    33    24    1
     5    24    25   ar
     6    25    26   ar
     7    26    27   ar
     8    27    22    1
     9    22    23    2
    10     1    22    1
    11     1     2    1
    12     2     3    1
    13     3     4    1
    14     4     5    1
    15     5     6    1
    16     6     7    1
    17     7     8    2
    18     7     9   am
    19     9    11    1
    20    11    12   ar
    21    12    13   ar
    22    13    14    1
    23    13    15   ar
    24    15    16   ar
    25    16    17    1
    26    17    18   am
    27    17    19    2
    28    27    28   ar
    29    28    29   ar
    30    33    34   ar
    31    34    35   ar
    32    35    31   ar
    33    29    24   ar
    34     6     1    1
    35    16    11   ar
    36     9    10    1
    37    18    20    1
    38    18    21    1
    39    35    36    1
@<TRIPOS>MOLECULE
*****
 36 39 0 0 0
SMALL
GASTEIGER

@<TRIPOS>ATOM
      1 C         138.9454  141.9668  164.7741 C.3     1  UNL1        0.0705
      2 C         137.9586  142.6656  163.8863 C.3     1  UNL1        0.0082
      3 C         137.7215  144.1386  164.0421 C.3     1  UNL1        0.0005
      4 C         138.4710  144.9127  165.0856 C.3     1  UNL1        0.0005
      5 C         139.4577  144.2139  165.9734 C.3     1  UNL1        0.0095
      6 C         139.6949  142.7410  165.8176 C.3     1  UNL1        0.0840
      7 C         140.6816  142.0422  166.7054 C.2     1  UNL1        0.2261
      8 O         142.0785  141.7891  166.2208 O.2     1  UNL1       -0.2748
      9 N         140.2716  141.5966  168.0776 N.am    1  UNL1       -0.2814
     10 H         139.3548  141.7627  168.3957 H       1  UNL1        0.1549
     11 C         141.2583  140.8978  168.9654 C.ar    1  UNL1        0.0934
     12 C         141.5483  139.4262  168.9744 C.ar    1  UNL1        0.1115
     13 N         142.5975  139.1668  170.0146 N.ar    1  UNL1       -0.2459
     14 C         143.1851  137.8306  170.3602 C.3     1  UNL1        0.1538
     15 N         142.9559  140.4782  170.6484 N.ar    1  UNL1       -0.1632
     16 C         142.1282  141.5480  170.0000 C.ar    1  UNL1        0.1686
     17 C         142.1642  143.0111  170.3286 C.2     1  UNL1        0.2635
     18 N         143.4014  143.6162  170.9228 N.am    1  UNL1       -0.3240
     19 O         140.9629  143.8693  170.0628 O.2     1  UNL1       -0.2686
     20 H         144.1898  143.0531  171.0972 H       1  UNL1        0.1453
     21 H         143.4249  144.5765  171.1384 H       1  UNL1        0.1453
     22 C         139.1825  140.4939  164.6183 C.2     1  UNL1        0.1731
     23 O         138.8442  139.5571  165.7399 O.2     1  UNL1       -0.2913
     24 C         140.9090  138.8857  160.7865 C.ar    1  UNL1        0.0194
     25 C         139.7889  138.1574  161.4683 C.ar    1  UNL1        0.0016
     26 C         139.2134  138.6934  162.7455 C.ar    1  UNL1        0.0029
     27 C         139.7581  139.9579  163.3410 C.ar    1  UNL1        0.0347
     28 C         140.8782  140.6862  162.6593 C.ar    1  UNL1        0.0029
     29 C         141.4536  140.1501  161.3820 C.ar    1  UNL1        0.0016
     30 C         141.4799  137.5299  155.7153 C.3     1  UNL1        0.0515
     31 C         141.7469  137.7264  157.1782 C.ar    1  UNL1        0.0535
     32 C         140.8145  138.3609  158.1672 C.ar    1  UNL1        0.0349
     33 C         141.4845  138.3496  159.5092 C.ar    1  UNL1        0.1018
     34 N         142.8310  137.7081  159.3497 N.ar    1  UNL1       -0.1730
     35 N         142.9932  137.3230  157.9091 N.ar    1  UNL1       -0.2798
     36 H         143.7795  136.8827  157.5128 H       1  UNL1        0.1886
@<TRIPOS>BOND
     1    30    31    1
     2    31    32   ar
     3    32    33   ar
     4    33    24    1
     5    24    25   ar
     6    25    26   ar
     7    26    27   ar
     8    27    22    1
     9    22    23    2
    10     1    22    1
    11     1     2    1
    12     2     3    1
    13     3     4    1
    14     4     5    1
    15     5     6    1
    16     6     7    1
    17     7     8    2
    18     7     9   am
    19     9    11    1
    20    11    12   ar
    21    12    13   ar
    22    13    14    1
    23    13    15   ar
    24    15    16   ar
    25    16    17    1
    26    17    18   am
    27    17    19    2
    28    27    28   ar
    29    28    29   ar
    30    33    34   ar
    31    34    35   ar
    32    35    31   ar
    33    29    24   ar
    34     6     1    1
    35    16    11   ar
    36     9    10    1
    37    18    20    1
    38    18    21    1
    39    35    36    1
@<TRIPOS>MOLECULE
*****
 36 39 0 0 0
SMALL
GASTEIGER

@<TRIPOS>ATOM
      1 C         143.6742  140.3622  164.1331 C.3     1  UNL1        0.0705
      2 C         144.0125  139.2120  165.0346 C.3     1  UNL1        0.0082
      3 C         143.2653  139.0229  166.3215 C.3     1  UNL1        0.0005
      4 C         142.1800  139.9838  166.7069 C.3     1  UNL1        0.0005
      5 C         141.8417  141.1340  165.8054 C.3     1  UNL1        0.0095
      6 C         142.5888  141.3232  164.5185 C.3     1  UNL1        0.0840
      7 C         142.2505  142.4733  163.6170 C.2     1  UNL1        0.2261
      8 O         142.8554  143.8235  163.8646 O.2     1  UNL1       -0.2748
      9 N         141.3074  142.2734  162.4679 N.am    1  UNL1       -0.2814
     10 H         140.9104  141.3872  162.3054 H       1  UNL1        0.1549
     11 C         140.9691  143.4235  161.5664 C.ar    1  UNL1        0.0934
     12 C         141.5459  143.6759  160.2049 C.ar    1  UNL1        0.1115
     13 N         140.9279  144.9316  159.6651 N.ar    1  UNL1       -0.2459
     14 C         141.2178  145.5542  158.3316 C.3     1  UNL1        0.1538
     15 N         139.9692  145.4553  160.6930 N.ar    1  UNL1       -0.1632
     16 C         139.9947  144.5232  161.8680 C.ar    1  UNL1        0.1686
     17 C         139.1874  144.6659  163.1242 C.2     1  UNL1        0.2635
     18 N         139.8528  145.0921  164.3991 N.am    1  UNL1       -0.3240
     19 O         137.7144  144.3824  163.1054 O.2     1  UNL1       -0.2686
     20 H         140.8195  145.2782  164.4114 H       1  UNL1        0.1453
     21 H         139.3229  145.1857  165.2235 H       1  UNL1        0.1453
     22 C         144.4213  140.5514  162.8463 C.2     1  UNL1        0.1731
     23 O         145.6523  141.4078  162.8126 O.2     1  UNL1       -0.2913
     24 C         142.9695  138.5497  159.0866 C.ar    1  UNL1        0.0194
     25 C         143.1199  137.7545  160.3495 C.ar    1  UNL1        0.0016
     26 C         143.6038  138.4217  161.6027 C.ar    1  UNL1        0.0029
     27 C         143.9373  139.8841  161.5930 C.ar    1  UNL1        0.0347
     28 C         143.7870  140.6793  160.3300 C.ar    1  UNL1        0.0029
     29 C         143.3030  140.0121  159.0768 C.ar    1  UNL1        0.0016
     30 C         139.8104  136.6846  155.2888 C.3     1  UNL1        0.0515
     31 C         141.0334  137.0252  156.0876 C.ar    1  UNL1        0.0535
     32 C         141.0566  137.7645  157.3926 C.ar    1  UNL1        0.0349
     33 C         142.4856  137.8824  157.8333 C.ar    1  UNL1        0.1018
     34 N         143.3456  137.2161  156.8006 N.ar    1  UNL1       -0.1730
     35 N         142.4482  136.6863  155.7218 N.ar    1  UNL1       -0.2798
     36 H         142.7370  136.2013  154.9152 H       1  UNL1        0.1886
@<TRIPOS>BOND
     1    30    31    1
     2    31    32   ar
     3    32    33   ar
     4    33    24    1
     5    24    25   ar
     6    25    26   ar
     7    26    27   ar
     8    27    22    1
     9    22    23    2
    10     1    22    1
    11     1     2    1
    12     2     3    1
    13     3     4    1
    14     4     5    1
    15     5     6    1
    16     6     7    1
    17     7     8    2
    18     7     9   am
    19     9    11    1
    20    11    12   ar
    21    12    13   ar
    22    13    14    1
    23    13    15   ar
    24    15    16   ar
    25    16    17    1
    26    17    18   am
    27    17    19    2
    28    27    28   ar
    29    28    29   ar
    30    33    34   ar
    31    34    35   ar
    32    35    31   ar
    33    29    24   ar
    34     6     1    1
    35    16    11   ar
    36     9    10    1
    37    18    20    1
    38    18    21    1
    39    35    36    1
@<TRIPOS>MOLECULE
*****
 36 39 0 0 0
SMALL
GASTEIGER

@<TRIPOS>ATOM
      1 C         139.4089  142.0020  163.2427 C.3     1  UNL1        0.0705
      2 C         138.4087  142.6864  162.3589 C.3     1  UNL1        0.0082
      3 C         137.7459  143.9521  162.8161 C.3     1  UNL1        0.0005
      4 C         138.0835  144.5333  164.1571 C.3     1  UNL1        0.0005
      5 C         139.0837  143.8489  165.0409 C.3     1  UNL1        0.0095
      6 C         139.7464  142.5833  164.5837 C.3     1  UNL1        0.0840
      7 C         140.7466  141.8989  165.4676 C.2     1  UNL1        0.2261
      8 O         142.1221  142.4750  165.6299 O.2     1  UNL1       -0.2748
      9 N         140.3714  140.6384  166.1890 N.am    1  UNL1       -0.2814
     10 H         139.4687  140.2603  166.0824 H       1  UNL1        0.1549
     11 C         141.3717  139.9540  167.0728 C.ar    1  UNL1        0.0934
     12 C         141.3543  139.9329  168.5725 C.ar    1  UNL1        0.1115
     13 N         142.5368  139.1364  169.0387 N.ar    1  UNL1       -0.2459
     14 C         142.9061  138.8597  170.4659 C.3     1  UNL1        0.1538
     15 N         143.2850  138.6652  167.8270 N.ar    1  UNL1       -0.1632
     16 C         142.5649  139.1705  166.6121 C.ar    1  UNL1        0.1686
     17 C         142.9674  138.9338  165.1866 C.2     1  UNL1        0.2635
     18 N         142.1154  138.0755  164.2993 N.am    1  UNL1       -0.3240
     19 O         144.2221  139.5554  164.6484 O.2     1  UNL1       -0.2686
     20 H         141.2920  137.6675  164.6524 H       1  UNL1        0.1453
     21 H         142.3797  137.9202  163.3637 H       1  UNL1        0.1453
     22 C         140.0716  140.7364  162.7855 C.2     1  UNL1        0.1731
     23 O         139.7209  139.4298  163.4335 O.2     1  UNL1       -0.2913
     24 C         143.1117  140.8592  159.4700 C.ar    1  UNL1        0.0194
     25 C         141.6805  140.5312  159.1635 C.ar    1  UNL1        0.0016
     26 C         140.6672  140.4903  160.2686 C.ar    1  UNL1        0.0029
     27 C         141.0850  140.7774  161.6803 C.ar    1  UNL1        0.0347
     28 C         142.5162  141.1054  161.9869 C.ar    1  UNL1        0.0029
     29 C         143.5295  141.1463  160.8818 C.ar    1  UNL1        0.0016
     30 C         146.8473  142.5477  156.1421 C.3     1  UNL1        0.0515
     31 C         145.8422  141.6763  156.8352 C.ar    1  UNL1        0.0535
     32 C         144.9758  142.0780  157.9919 C.ar    1  UNL1        0.0349
     33 C         144.1251  140.9002  158.3648 C.ar    1  UNL1        0.1018
     34 N         144.4657  139.7705  157.4386 N.ar    1  UNL1       -0.1730
     35 N         145.5269  140.2502  156.4932 N.ar    1  UNL1       -0.2798
     36 H         145.9434  139.7218  155.7745 H       1  UNL1        0.1886
@<TRIPOS>BOND
     1    30    31    1
     2    31    32   ar
     3    32    33   ar
     4    33    24    1
     5    24    25   ar
     6    25    26   ar
     7    26    27   ar
     8    27    22    1
     9    22    23    2
    10     1    22    1
    11     1     2    1
    12     2     3    1
    13     3     4    1
    14     4     5    1
    15     5     6    1
    16     6     7    1
    17     7     8    2
    18     7     9   am
    19     9    11    1
    20    11    12   ar
    21    12    13   ar
    22    13    14    1
    23    13    15   ar
    24    15    16   ar
    25    16    17    1
    26    17    18   am
    27    17    19    2
    28    27    28   ar
    29    28    29   ar
    30    33    34   ar
    31    34    35   ar
    32    35    31   ar
    33    29    24   ar
    34     6     1    1
    35    16    11   ar
    36     9    10    1
    37    18    20    1
    38    18    21    1
    39    35    36    1
