@<TRIPOS>MOLECULE
*****
 36 40 0 0 0
SMALL
GASTEIGER

@<TRIPOS>ATOM
      1 N         144.3357  141.5861  163.5509 N.3     1  UNL1       -0.2673
      2 C         144.1431  142.7260  164.5066 C.3     1  UNL1        0.1035
      3 C         143.1574  143.8115  164.1903 C.3     1  UNL1        0.1470
      4 C         142.1716  144.8971  163.8740 C.3     1  UNL1        0.1036
      5 N         141.3786  144.8426  162.6019 N.3     1  UNL1       -0.2653
      6 C         141.5713  143.7027  161.6461 C.3     1  UNL1        0.1036
      7 C         142.5570  142.6172  161.9625 C.3     1  UNL1        0.1470
      8 C         143.5427  141.5317  162.2788 C.3     1  UNL1        0.1035
      9 O         142.3644  143.7571  162.9182 O.3     1  UNL1       -0.3530
     10 C         145.3215  140.5006  163.8672 C.3     1  UNL1        0.0916
     11 C         144.8908  139.3057  164.6650 C.3     1  UNL1        0.1131
     12 C         142.5799  138.3663  163.9391 C.3     1  UNL1        0.1149
     13 N         143.4353  139.0763  164.9460 N.3     1  UNL1       -0.1526
     14 S         142.8353  139.5571  166.2339 S.O2    1  UNL1        0.0634
     15 O         143.7679  138.6670  167.0007 O.2     1  UNL1       -0.1528
     16 O         141.9026  140.4472  165.4672 O.2     1  UNL1       -0.1528
     17 C         142.2352  140.0379  167.5219 C.ar    1  UNL1        0.1221
     18 C         142.3046  139.1777  168.7488 C.ar    1  UNL1        0.0230
     19 C         141.7046  139.6585  170.0368 C.ar    1  UNL1        0.0379
     20 C         141.0352  140.9995  170.0978 C.ar    1  UNL1        0.1347
     21 C         140.9658  141.8597  168.8709 C.ar    1  UNL1        0.0168
     22 C         141.5658  141.3789  167.5829 C.ar    1  UNL1        0.0188
     23 C         140.2473  143.1258  169.2325 C.3     1  UNL1        0.0768
     24 C         139.8727  143.0481  170.6828 C.3     1  UNL1        0.2102
     25 O         140.3596  141.7340  171.2176 O.3     1  UNL1       -0.4754
     26 C         140.3929  145.9281  162.2856 C.3     1  UNL1        0.1202
     27 C         139.0345  145.5765  161.7552 C.3     1  UNL1        0.2226
     28 O         138.0047  144.9791  162.6676 O.3     1  UNL1       -0.4740
     29 C         138.1537  143.5640  163.1421 C.ar    1  UNL1        0.1387
     30 C         138.5097  143.2861  164.5725 C.ar    1  UNL1        0.0376
     31 C         138.6587  141.8709  165.0470 C.ar    1  UNL1        0.0134
     32 C         138.4516  140.7336  164.0911 C.ar    1  UNL1        0.0686
     33 C         138.0956  141.0115  162.6607 C.ar    1  UNL1        0.0134
     34 C         137.9466  142.4266  162.1862 C.ar    1  UNL1        0.0376
     35 C         138.6006  139.3185  164.5656 C.1     1  UNL1        0.1004
     36 N         138.7496  137.9033  165.0401 N.1     1  UNL1       -0.1908
@<TRIPOS>BOND
     1    12    13    1
     2    13    11    1
     3    11    10    1
     4    10     1    1
     5     1     2    1
     6     2     3    1
     7     3     4    1
     8     4     5    1
     9     5    26    1
    10    26    27    1
    11    27    28    1
    12    28    29    1
    13    29    30   ar
    14    30    31   ar
    15    31    32   ar
    16    32    35    1
    17    35    36    3
    18    32    33   ar
    19    33    34   ar
    20     5     6    1
    21     6     7    1
    22     7     8    1
    23     7     9    1
    24    13    14    1
    25    14    15    2
    26    14    16    2
    27    14    17    1
    28    17    18   ar
    29    18    19   ar
    30    19    20   ar
    31    20    21   ar
    32    21    22   ar
    33    21    23    1
    34    23    24    1
    35    24    25    1
    36     8     1    1
    37    22    17   ar
    38     9     3    1
    39    25    20    1
    40    34    29   ar
@<TRIPOS>MOLECULE
*****
 36 40 0 0 0
SMALL
GASTEIGER

@<TRIPOS>ATOM
      1 N         144.4206  141.5507  163.3633 N.3     1  UNL1       -0.2673
      2 C         144.2184  141.5871  161.8774 C.3     1  UNL1        0.1035
      3 C         143.2855  142.5936  161.2720 C.3     1  UNL1        0.1470
      4 C         142.3526  143.6002  160.6665 C.3     1  UNL1        0.1036
      5 N         141.6218  144.5702  161.5469 N.3     1  UNL1       -0.2653
      6 C         141.8240  144.5337  163.0328 C.3     1  UNL1        0.1036
      7 C         142.7569  143.5272  163.6382 C.3     1  UNL1        0.1470
      8 C         143.6898  142.5207  164.2437 C.3     1  UNL1        0.1035
      9 O         142.5548  143.5637  162.1524 O.3     1  UNL1       -0.3530
     10 C         145.3535  140.5441  163.9688 C.3     1  UNL1        0.0916
     11 C         144.9142  139.1197  164.1357 C.3     1  UNL1        0.1131
     12 C         143.4258  138.4786  166.1664 C.3     1  UNL1        0.1149
     13 N         143.5630  138.8140  164.7108 N.3     1  UNL1       -0.1526
     14 S         142.3490  138.8436  163.8303 S.O2    1  UNL1        0.0634
     15 O         141.6042  139.6099  164.8830 O.2     1  UNL1       -0.1528
     16 O         143.0937  138.0773  162.7777 O.2     1  UNL1       -0.1528
     17 C         141.1349  138.8733  162.9498 C.ar    1  UNL1        0.1221
     18 C         140.0017  137.9236  163.2027 C.ar    1  UNL1        0.0230
     19 C         138.7877  137.9532  162.3222 C.ar    1  UNL1        0.0379
     20 C         138.7069  138.9326  161.1888 C.ar    1  UNL1        0.1347
     21 C         139.8401  139.8822  160.9360 C.ar    1  UNL1        0.0168
     22 C         141.0542  139.8525  161.8165 C.ar    1  UNL1        0.0188
     23 C         139.4794  140.7297  159.7521 C.3     1  UNL1        0.0768
     24 C         138.1232  140.3038  159.2732 C.3     1  UNL1        0.2102
     25 O         137.6458  139.1931  160.1612 O.3     1  UNL1       -0.4754
     26 C         140.6889  145.5767  160.9414 C.3     1  UNL1        0.1202
     27 C         139.6809  146.2783  161.8027 C.3     1  UNL1        0.2226
     28 O         138.3630  145.6259  162.0979 O.3     1  UNL1       -0.4740
     29 C         138.3181  144.3443  162.8761 C.ar    1  UNL1        0.1387
     30 C         137.8096  143.0907  162.2281 C.ar    1  UNL1        0.0376
     31 C         137.7648  141.8092  163.0063 C.ar    1  UNL1        0.0134
     32 C         138.2285  141.7812  164.4326 C.ar    1  UNL1        0.0686
     33 C         138.7369  143.0348  165.0806 C.ar    1  UNL1        0.0134
     34 C         138.7818  144.3164  164.3024 C.ar    1  UNL1        0.0376
     35 C         138.1836  140.4997  165.2108 C.1     1  UNL1        0.1004
     36 N         138.1388  139.2181  165.9890 N.1     1  UNL1       -0.1908
@<TRIPOS>BOND
     1    12    13    1
     2    13    11    1
     3    11    10    1
     4    10     1    1
     5     1     2    1
     6     2     3    1
     7     3     4    1
     8     4     5    1
     9     5    26    1
    10    26    27    1
    11    27    28    1
    12    28    29    1
    13    29    30   ar
    14    30    31   ar
    15    31    32   ar
    16    32    35    1
    17    35    36    3
    18    32    33   ar
    19    33    34   ar
    20     5     6    1
    21     6     7    1
    22     7     8    1
    23     7     9    1
    24    13    14    1
    25    14    15    2
    26    14    16    2
    27    14    17    1
    28    17    18   ar
    29    18    19   ar
    30    19    20   ar
    31    20    21   ar
    32    21    22   ar
    33    21    23    1
    34    23    24    1
    35    24    25    1
    36     8     1    1
    37    22    17   ar
    38     9     3    1
    39    25    20    1
    40    34    29   ar
@<TRIPOS>MOLECULE
*****
 36 40 0 0 0
SMALL
GASTEIGER

@<TRIPOS>ATOM
      1 N         144.7124  141.3885  164.0414 N.3     1  UNL1       -0.2673
      2 C         144.2821  139.9649  164.2367 C.3     1  UNL1        0.1035
      3 C         143.3728  139.6057  165.3743 C.3     1  UNL1        0.1470
      4 C         142.4635  139.2464  166.5119 C.3     1  UNL1        0.1036
      5 N         141.9845  140.3108  167.4541 N.3     1  UNL1       -0.2653
      6 C         142.4149  141.7344  167.2587 C.3     1  UNL1        0.1036
      7 C         143.3242  142.0936  166.1212 C.3     1  UNL1        0.1470
      8 C         144.2335  142.4529  164.9836 C.3     1  UNL1        0.1035
      9 O         142.8938  140.6701  166.3165 O.3     1  UNL1       -0.3530
     10 C         145.6218  141.7478  162.9038 C.3     1  UNL1        0.0916
     11 C         145.0952  142.5402  161.7442 C.3     1  UNL1        0.1131
     12 C         143.9819  141.2245  159.8000 C.3     1  UNL1        0.1149
     13 N         143.8613  142.0846  161.0230 N.3     1  UNL1       -0.1526
     14 S         142.5069  142.4890  161.5249 S.O2    1  UNL1        0.0634
     15 O         142.1106  141.0454  161.6188 O.2     1  UNL1       -0.1528
     16 O         142.9031  143.9327  161.4310 O.2     1  UNL1       -0.1528
     17 C         141.1524  142.8935  162.0268 C.ar    1  UNL1        0.1221
     18 C         139.9489  142.7392  161.1448 C.ar    1  UNL1        0.0230
     19 C         138.5945  143.1437  161.6467 C.ar    1  UNL1        0.0379
     20 C         138.4435  143.7024  163.0306 C.ar    1  UNL1        0.1347
     21 C         139.6470  143.8566  163.9125 C.ar    1  UNL1        0.0168
     22 C         141.0014  143.4522  163.4106 C.ar    1  UNL1        0.0188
     23 C         139.1923  144.4332  165.2205 C.3     1  UNL1        0.0768
     24 C         137.7078  144.6352  165.1469 C.3     1  UNL1        0.2102
     25 O         137.2450  144.1836  163.7934 O.3     1  UNL1       -0.4754
     26 C         141.0752  139.9515  168.5917 C.3     1  UNL1        0.1202
     27 C         139.6063  140.2406  168.4978 C.3     1  UNL1        0.2226
     28 O         138.7004  139.2928  167.7692 O.3     1  UNL1       -0.4740
     29 C         138.7997  139.1567  166.2787 C.ar    1  UNL1        0.1387
     30 C         138.7600  137.7976  165.6453 C.ar    1  UNL1        0.0376
     31 C         138.8593  137.6616  164.1547 C.ar    1  UNL1        0.0134
     32 C         138.9984  138.8847  163.2977 C.ar    1  UNL1        0.0686
     33 C         139.0381  140.2439  163.9311 C.ar    1  UNL1        0.0134
     34 C         138.9388  140.3799  165.4215 C.ar    1  UNL1        0.0376
     35 C         139.0977  138.7487  161.8072 C.1     1  UNL1        0.1004
     36 N         139.1971  138.6126  160.3166 N.1     1  UNL1       -0.1908
@<TRIPOS>BOND
     1    12    13    1
     2    13    11    1
     3    11    10    1
     4    10     1    1
     5     1     2    1
     6     2     3    1
     7     3     4    1
     8     4     5    1
     9     5    26    1
    10    26    27    1
    11    27    28    1
    12    28    29    1
    13    29    30   ar
    14    30    31   ar
    15    31    32   ar
    16    32    35    1
    17    35    36    3
    18    32    33   ar
    19    33    34   ar
    20     5     6    1
    21     6     7    1
    22     7     8    1
    23     7     9    1
    24    13    14    1
    25    14    15    2
    26    14    16    2
    27    14    17    1
    28    17    18   ar
    29    18    19   ar
    30    19    20   ar
    31    20    21   ar
    32    21    22   ar
    33    21    23    1
    34    23    24    1
    35    24    25    1
    36     8     1    1
    37    22    17   ar
    38     9     3    1
    39    25    20    1
    40    34    29   ar
@<TRIPOS>MOLECULE
*****
 36 40 0 0 0
SMALL
GASTEIGER

@<TRIPOS>ATOM
      1 N         143.2954  140.4513  160.7445 N.3     1  UNL1       -0.2673
      2 C         143.8623  141.6599  161.4285 C.3     1  UNL1        0.1035
      3 C         143.1250  142.9652  161.3777 C.3     1  UNL1        0.1470
      4 C         142.3877  144.2705  161.3269 C.3     1  UNL1        0.1036
      5 N         141.0835  144.3671  160.5922 N.3     1  UNL1       -0.2653
      6 C         140.5166  143.1584  159.9083 C.3     1  UNL1        0.1036
      7 C         141.2540  141.8531  159.9591 C.3     1  UNL1        0.1470
      8 C         141.9913  140.5479  160.0098 C.3     1  UNL1        0.1035
      9 O         141.8208  143.0618  160.6430 O.3     1  UNL1       -0.3530
     10 C         144.0328  139.1459  160.7953 C.3     1  UNL1        0.0916
     11 C         143.9009  138.2563  161.9957 C.3     1  UNL1        0.1131
     12 C         141.4095  137.6176  162.3630 C.3     1  UNL1        0.1149
     13 N         142.6570  138.3053  162.8327 N.3     1  UNL1       -0.1526
     14 S         142.6608  139.0421  164.1393 S.O2    1  UNL1        0.0634
     15 O         141.1974  139.3307  163.9807 O.2     1  UNL1       -0.1528
     16 O         144.1242  138.7534  164.2978 O.2     1  UNL1       -0.1528
     17 C         142.6646  139.7788  165.4458 C.ar    1  UNL1        0.1221
     18 C         142.7106  141.2781  165.4613 C.ar    1  UNL1        0.0230
     19 C         142.7144  142.0149  166.7679 C.ar    1  UNL1        0.0379
     20 C         142.6721  141.2523  168.0590 C.ar    1  UNL1        0.1347
     21 C         142.6261  139.7532  168.0435 C.ar    1  UNL1        0.0168
     22 C         142.6223  139.0164  166.7369 C.ar    1  UNL1        0.0188
     23 C         142.5907  139.2758  169.4650 C.3     1  UNL1        0.0768
     24 C         142.6149  140.4799  170.3591 C.3     1  UNL1        0.2102
     25 O         142.6652  141.7016  169.4901 O.3     1  UNL1       -0.4754
     26 C         140.3462  145.6724  160.5415 C.3     1  UNL1        0.1202
     27 C         139.6058  146.1631  161.7502 C.3     1  UNL1        0.2226
     28 O         138.3952  145.4246  162.2392 O.3     1  UNL1       -0.4740
     29 C         138.5512  144.2761  163.1913 C.ar    1  UNL1        0.1387
     30 C         137.8926  142.9614  162.8949 C.ar    1  UNL1        0.0376
     31 C         138.0486  141.8129  163.8471 C.ar    1  UNL1        0.0134
     32 C         138.8631  141.9791  165.0956 C.ar    1  UNL1        0.0686
     33 C         139.5216  143.2938  165.3921 C.ar    1  UNL1        0.0134
     34 C         139.3656  144.4423  164.4400 C.ar    1  UNL1        0.0376
     35 C         139.0190  140.8306  166.0478 C.1     1  UNL1        0.1004
     36 N         139.1750  139.6820  166.9999 N.1     1  UNL1       -0.1908
@<TRIPOS>BOND
     1    12    13    1
     2    13    11    1
     3    11    10    1
     4    10     1    1
     5     1     2    1
     6     2     3    1
     7     3     4    1
     8     4     5    1
     9     5    26    1
    10    26    27    1
    11    27    28    1
    12    28    29    1
    13    29    30   ar
    14    30    31   ar
    15    31    32   ar
    16    32    35    1
    17    35    36    3
    18    32    33   ar
    19    33    34   ar
    20     5     6    1
    21     6     7    1
    22     7     8    1
    23     7     9    1
    24    13    14    1
    25    14    15    2
    26    14    16    2
    27    14    17    1
    28    17    18   ar
    29    18    19   ar
    30    19    20   ar
    31    20    21   ar
    32    21    22   ar
    33    21    23    1
    34    23    24    1
    35    24    25    1
    36     8     1    1
    37    22    17   ar
    38     9     3    1
    39    25    20    1
    40    34    29   ar
@<TRIPOS>MOLECULE
*****
 36 40 0 0 0
SMALL
GASTEIGER

@<TRIPOS>ATOM
      1 N         142.0520  138.6138  161.0990 N.3     1  UNL1       -0.2673
      2 C         140.5809  138.4408  160.8625 C.3     1  UNL1        0.1035
      3 C         139.6686  138.1262  162.0108 C.3     1  UNL1        0.1470
      4 C         138.7562  137.8115  163.1591 C.3     1  UNL1        0.1036
      5 N         139.3149  137.6698  164.5439 N.3     1  UNL1       -0.2653
      6 C         140.7861  137.8428  164.7804 C.3     1  UNL1        0.1036
      7 C         141.6984  138.1575  163.6321 C.3     1  UNL1        0.1470
      8 C         142.6107  138.4721  162.4838 C.3     1  UNL1        0.1035
      9 O         140.2273  137.9845  163.3956 O.3     1  UNL1       -0.3530
     10 C         142.9644  138.9285  159.9507 C.3     1  UNL1        0.0916
     11 C         143.7713  140.1929  159.9586 C.3     1  UNL1        0.1131
     12 C         143.1870  142.0991  158.2927 C.3     1  UNL1        0.1149
     13 N         143.1089  141.5072  159.6687 N.3     1  UNL1       -0.1526
     14 S         142.3684  142.2295  160.7550 S.O2    1  UNL1        0.0634
     15 O         143.6666  142.5147  161.4503 O.2     1  UNL1       -0.1528
     16 O         141.0702  141.9443  160.0597 O.2     1  UNL1       -0.1528
     17 C         141.6279  142.9518  161.8412 C.ar    1  UNL1        0.1221
     18 C         142.3270  143.9983  162.6575 C.ar    1  UNL1        0.0230
     19 C         141.5865  144.7207  163.7438 C.ar    1  UNL1        0.0379
     20 C         140.1470  144.3965  164.0137 C.ar    1  UNL1        0.1347
     21 C         139.4480  143.3501  163.1974 C.ar    1  UNL1        0.0168
     22 C         140.1885  142.6278  162.1111 C.ar    1  UNL1        0.0188
     23 C         138.0350  143.2454  163.6898 C.3     1  UNL1        0.0768
     24 C         137.8608  144.2271  164.8104 C.3     1  UNL1        0.2102
     25 O         139.1661  144.9386  165.0106 O.3     1  UNL1       -0.4754
     26 C         138.4026  137.3552  165.6922 C.3     1  UNL1        0.1202
     27 C         137.9198  138.4557  166.5899 C.3     1  UNL1        0.2226
     28 O         138.3122  139.8766  166.3123 O.3     1  UNL1       -0.4740
     29 C         139.5176  140.4663  166.9825 C.ar    1  UNL1        0.1387
     30 C         139.8428  140.0986  168.3999 C.ar    1  UNL1        0.0376
     31 C         141.0483  140.6883  169.0700 C.ar    1  UNL1        0.0134
     32 C         141.9286  141.6457  168.3228 C.ar    1  UNL1        0.0686
     33 C         141.6035  142.0134  166.9054 C.ar    1  UNL1        0.0134
     34 C         140.3980  141.4237  166.2352 C.ar    1  UNL1        0.0376
     35 C         143.1340  142.2354  168.9929 C.1     1  UNL1        0.1004
     36 N         144.3395  142.8251  169.6631 N.1     1  UNL1       -0.1908
@<TRIPOS>BOND
     1    12    13    1
     2    13    11    1
     3    11    10    1
     4    10     1    1
     5     1     2    1
     6     2     3    1
     7     3     4    1
     8     4     5    1
     9     5    26    1
    10    26    27    1
    11    27    28    1
    12    28    29    1
    13    29    30   ar
    14    30    31   ar
    15    31    32   ar
    16    32    35    1
    17    35    36    3
    18    32    33   ar
    19    33    34   ar
    20     5     6    1
    21     6     7    1
    22     7     8    1
    23     7     9    1
    24    13    14    1
    25    14    15    2
    26    14    16    2
    27    14    17    1
    28    17    18   ar
    29    18    19   ar
    30    19    20   ar
    31    20    21   ar
    32    21    22   ar
    33    21    23    1
    34    23    24    1
    35    24    25    1
    36     8     1    1
    37    22    17   ar
    38     9     3    1
    39    25    20    1
    40    34    29   ar
@<TRIPOS>MOLECULE
*****
 36 40 0 0 0
SMALL
GASTEIGER

@<TRIPOS>ATOM
      1 N         144.2185  141.6193  161.6535 N.3     1  UNL1       -0.2673
      2 C         143.8362  140.1865  161.4279 C.3     1  UNL1        0.1035
      3 C         142.5884  139.8545  160.6646 C.3     1  UNL1        0.1470
      4 C         141.3405  139.5224  159.9013 C.3     1  UNL1        0.1036
      5 N         140.4749  140.6232  159.3636 N.3     1  UNL1       -0.2653
      6 C         140.8572  142.0561  159.5892 C.3     1  UNL1        0.1036
      7 C         142.1051  142.3881  160.3525 C.3     1  UNL1        0.1470
      8 C         143.3529  142.7201  161.1158 C.3     1  UNL1        0.1035
      9 O         141.7228  140.9553  160.1269 O.3     1  UNL1       -0.3530
     10 C         145.4663  141.9514  162.4168 C.3     1  UNL1        0.0916
     11 C         145.5469  141.6595  163.8859 C.3     1  UNL1        0.1131
     12 C         144.3687  143.2791  165.5410 C.3     1  UNL1        0.1149
     13 N         144.3878  141.9865  164.7802 N.3     1  UNL1       -0.1526
     14 S         143.2479  141.0207  164.9138 S.O2    1  UNL1        0.0634
     15 O         142.2764  142.1631  164.8832 O.2     1  UNL1       -0.1528
     16 O         144.2194  139.8782  164.9444 O.2     1  UNL1       -0.1528
     17 C         142.1080  140.0549  165.0474 C.ar    1  UNL1        0.1221
     18 C         142.0948  138.7934  164.2359 C.ar    1  UNL1        0.0230
     19 C         140.9549  137.8276  164.3695 C.ar    1  UNL1        0.0379
     20 C         139.8281  138.1233  165.3145 C.ar    1  UNL1        0.1347
     21 C         139.8414  139.3848  166.1259 C.ar    1  UNL1        0.0168
     22 C         140.9813  140.3506  165.9924 C.ar    1  UNL1        0.0188
     23 C         138.6009  139.4067  166.9689 C.3     1  UNL1        0.0768
     24 C         137.8210  138.1588  166.6785 C.3     1  UNL1        0.2102
     25 O         138.5795  137.3656  165.6560 O.3     1  UNL1       -0.4754
     26 C         139.2271  140.2912  158.6003 C.3     1  UNL1        0.1202
     27 C         137.8859  140.4348  159.2565 C.3     1  UNL1        0.2226
     28 O         137.7147  140.0691  160.7011 O.3     1  UNL1       -0.4740
     29 C         137.8330  141.1240  161.7609 C.ar    1  UNL1        0.1387
     30 C         137.9911  142.5640  161.3715 C.ar    1  UNL1        0.0376
     31 C         138.1094  143.6189  162.4313 C.ar    1  UNL1        0.0134
     32 C         138.0697  143.2339  163.8805 C.ar    1  UNL1        0.0686
     33 C         137.9116  141.7940  164.2699 C.ar    1  UNL1        0.0134
     34 C         137.7933  140.7391  163.2102 C.ar    1  UNL1        0.0376
     35 C         138.1880  144.2888  164.9402 C.1     1  UNL1        0.1004
     36 N         138.3062  145.3438  166.0000 N.1     1  UNL1       -0.1908
@<TRIPOS>BOND
     1    12    13    1
     2    13    11    1
     3    11    10    1
     4    10     1    1
     5     1     2    1
     6     2     3    1
     7     3     4    1
     8     4     5    1
     9     5    26    1
    10    26    27    1
    11    27    28    1
    12    28    29    1
    13    29    30   ar
    14    30    31   ar
    15    31    32   ar
    16    32    35    1
    17    35    36    3
    18    32    33   ar
    19    33    34   ar
    20     5     6    1
    21     6     7    1
    22     7     8    1
    23     7     9    1
    24    13    14    1
    25    14    15    2
    26    14    16    2
    27    14    17    1
    28    17    18   ar
    29    18    19   ar
    30    19    20   ar
    31    20    21   ar
    32    21    22   ar
    33    21    23    1
    34    23    24    1
    35    24    25    1
    36     8     1    1
    37    22    17   ar
    38     9     3    1
    39    25    20    1
    40    34    29   ar
@<TRIPOS>MOLECULE
*****
 36 40 0 0 0
SMALL
GASTEIGER

@<TRIPOS>ATOM
      1 N         142.4921  138.9725  159.1265 N.3     1  UNL1       -0.2673
      2 C         142.7314  138.0275  160.2665 C.3     1  UNL1        0.1035
      3 C         143.4584  138.4985  161.4911 C.3     1  UNL1        0.1470
      4 C         144.1854  138.9695  162.7157 C.3     1  UNL1        0.1036
      5 N         144.6730  140.3855  162.8003 N.3     1  UNL1       -0.2653
      6 C         144.4336  141.3305  161.6602 C.3     1  UNL1        0.1036
      7 C         143.7067  140.8595  160.4357 C.3     1  UNL1        0.1470
      8 C         142.9797  140.3885  159.2111 C.3     1  UNL1        0.1035
      9 O         143.9460  139.9145  161.5756 O.3     1  UNL1       -0.3530
     10 C         141.7651  138.5015  157.9018 C.3     1  UNL1        0.0916
     11 C         140.2829  138.2766  157.9496 C.3     1  UNL1        0.1131
     12 C         138.7838  140.3268  157.4024 C.3     1  UNL1        0.1149
     13 N         139.3714  139.3777  158.4043 N.3     1  UNL1       -0.1526
     14 S         139.0475  139.5298  159.8610 S.O2    1  UNL1        0.0634
     15 O         138.9019  141.0109  159.6741 O.2     1  UNL1       -0.1528
     16 O         139.1932  138.0486  160.0480 O.2     1  UNL1       -0.1528
     17 C         138.7237  139.6818  161.3178 C.ar    1  UNL1        0.1221
     18 C         138.0403  140.9237  161.8085 C.ar    1  UNL1        0.0230
     19 C         137.7165  141.0758  163.2652 C.ar    1  UNL1        0.0379
     20 C         138.0760  139.9859  164.2312 C.ar    1  UNL1        0.1347
     21 C         138.7594  138.7441  163.7404 C.ar    1  UNL1        0.0168
     22 C         139.0832  138.5920  162.2837 C.ar    1  UNL1        0.0188
     23 C         138.9901  137.8454  164.9190 C.3     1  UNL1        0.0768
     24 C         138.4494  138.5319  166.1382 C.3     1  UNL1        0.2102
     25 O         137.8844  139.8548  165.7131 O.3     1  UNL1       -0.4754
     26 C         145.4000  140.8565  164.0249 C.3     1  UNL1        0.1202
     27 C         145.5721  142.3253  164.2765 C.3     1  UNL1        0.2226
     28 O         144.5907  143.0579  165.1424 O.3     1  UNL1       -0.4740
     29 C         143.2397  143.4223  164.6020 C.ar    1  UNL1        0.1387
     30 C         142.0966  142.4594  164.7288 C.ar    1  UNL1        0.0376
     31 C         140.7455  142.8238  164.1883 C.ar    1  UNL1        0.0134
     32 C         140.5377  144.1511  163.5212 C.ar    1  UNL1        0.0686
     33 C         141.6808  145.1140  163.3945 C.ar    1  UNL1        0.0134
     34 C         143.0318  144.7496  163.9349 C.ar    1  UNL1        0.0376
     35 C         139.1867  144.5155  162.9808 C.1     1  UNL1        0.1004
     36 N         137.8357  144.8799  162.4404 N.1     1  UNL1       -0.1908
@<TRIPOS>BOND
     1    12    13    1
     2    13    11    1
     3    11    10    1
     4    10     1    1
     5     1     2    1
     6     2     3    1
     7     3     4    1
     8     4     5    1
     9     5    26    1
    10    26    27    1
    11    27    28    1
    12    28    29    1
    13    29    30   ar
    14    30    31   ar
    15    31    32   ar
    16    32    35    1
    17    35    36    3
    18    32    33   ar
    19    33    34   ar
    20     5     6    1
    21     6     7    1
    22     7     8    1
    23     7     9    1
    24    13    14    1
    25    14    15    2
    26    14    16    2
    27    14    17    1
    28    17    18   ar
    29    18    19   ar
    30    19    20   ar
    31    20    21   ar
    32    21    22   ar
    33    21    23    1
    34    23    24    1
    35    24    25    1
    36     8     1    1
    37    22    17   ar
    38     9     3    1
    39    25    20    1
    40    34    29   ar
@<TRIPOS>MOLECULE
*****
 36 40 0 0 0
SMALL
GASTEIGER

@<TRIPOS>ATOM
      1 N         143.1869  140.1883  160.2433 N.3     1  UNL1       -0.2673
      2 C         143.8075  140.2288  161.6083 C.3     1  UNL1        0.1035
      3 C         143.0842  139.6318  162.7789 C.3     1  UNL1        0.1470
      4 C         142.3609  139.0348  163.9496 C.3     1  UNL1        0.1036
      5 N         141.0171  138.3973  163.7553 N.3     1  UNL1       -0.2653
      6 C         140.3966  138.3568  162.3902 C.3     1  UNL1        0.1036
      7 C         141.1199  138.9538  161.2196 C.3     1  UNL1        0.1470
      8 C         141.8431  139.5508  160.0489 C.3     1  UNL1        0.1035
      9 O         141.7404  138.9943  162.5846 O.3     1  UNL1       -0.3530
     10 C         143.9102  140.7854  159.0726 C.3     1  UNL1        0.0916
     11 C         144.1782  142.2606  159.0295 C.3     1  UNL1        0.1131
     12 C         142.6306  143.8410  157.6666 C.3     1  UNL1        0.1149
     13 N         143.0342  143.2294  158.9754 N.3     1  UNL1       -0.1526
     14 S         142.2938  143.5865  160.2301 S.O2    1  UNL1        0.0634
     15 O         140.9910  143.3110  159.5398 O.2     1  UNL1       -0.1528
     16 O         143.5967  143.8619  160.9205 O.2     1  UNL1       -0.1528
     17 C         141.5535  143.9436  161.4849 C.ar    1  UNL1        0.1221
     18 C         142.2527  144.6914  162.5812 C.ar    1  UNL1        0.0230
     19 C         141.5124  145.0485  163.8360 C.ar    1  UNL1        0.0379
     20 C         140.0728  144.6577  163.9943 C.ar    1  UNL1        0.1347
     21 C         139.3737  143.9100  162.8980 C.ar    1  UNL1        0.0168
     22 C         140.1140  143.5529  161.6433 C.ar    1  UNL1        0.0188
     23 C         137.9606  143.6604  163.3352 C.3     1  UNL1        0.0768
     24 C         137.7865  144.2540  164.7017 C.3     1  UNL1        0.2102
     25 O         139.0920  144.8704  165.1091 O.3     1  UNL1       -0.4754
     26 C         140.2938  137.8003  164.9259 C.3     1  UNL1        0.1202
     27 C         138.8125  137.9889  165.0679 C.3     1  UNL1        0.2226
     28 O         138.2670  139.2942  165.5664 O.3     1  UNL1       -0.4740
     29 C         139.0784  140.1364  166.5055 C.ar    1  UNL1        0.1387
     30 C         139.7466  141.3836  166.0076 C.ar    1  UNL1        0.0376
     31 C         140.5581  142.2259  166.9469 C.ar    1  UNL1        0.0134
     32 C         140.7014  141.8209  168.3840 C.ar    1  UNL1        0.0686
     33 C         140.0332  140.5736  168.8819 C.ar    1  UNL1        0.0134
     34 C         139.2218  139.7314  167.9428 C.ar    1  UNL1        0.0376
     35 C         141.5128  142.6631  169.3232 C.1     1  UNL1        0.1004
     36 N         142.3244  143.5054  170.2624 N.1     1  UNL1       -0.1908
@<TRIPOS>BOND
     1    12    13    1
     2    13    11    1
     3    11    10    1
     4    10     1    1
     5     1     2    1
     6     2     3    1
     7     3     4    1
     8     4     5    1
     9     5    26    1
    10    26    27    1
    11    27    28    1
    12    28    29    1
    13    29    30   ar
    14    30    31   ar
    15    31    32   ar
    16    32    35    1
    17    35    36    3
    18    32    33   ar
    19    33    34   ar
    20     5     6    1
    21     6     7    1
    22     7     8    1
    23     7     9    1
    24    13    14    1
    25    14    15    2
    26    14    16    2
    27    14    17    1
    28    17    18   ar
    29    18    19   ar
    30    19    20   ar
    31    20    21   ar
    32    21    22   ar
    33    21    23    1
    34    23    24    1
    35    24    25    1
    36     8     1    1
    37    22    17   ar
    38     9     3    1
    39    25    20    1
    40    34    29   ar
@<TRIPOS>MOLECULE
*****
 36 40 0 0 0
SMALL
GASTEIGER

@<TRIPOS>ATOM
      1 N         140.8119  138.3986  159.8790 N.3     1  UNL1       -0.2673
      2 C         139.3774  138.7531  160.1369 C.3     1  UNL1        0.1035
      3 C         138.8135  138.6368  161.5219 C.3     1  UNL1        0.1470
      4 C         138.2495  138.5205  162.9070 C.3     1  UNL1        0.1036
      5 N         139.1201  138.0498  164.0342 N.3     1  UNL1       -0.2653
      6 C         140.5547  137.6953  163.7763 C.3     1  UNL1        0.1036
      7 C         141.1186  137.8116  162.3912 C.3     1  UNL1        0.1470
      8 C         141.6825  137.9279  161.0061 C.3     1  UNL1        0.1035
      9 O         139.6841  138.1660  162.6491 O.3     1  UNL1       -0.3530
     10 C         141.3759  138.5149  158.4939 C.3     1  UNL1        0.0916
     11 C         142.8607  138.4829  158.2835 C.3     1  UNL1        0.1131
     12 C         144.2797  140.3289  157.1307 C.3     1  UNL1        0.1149
     13 N         143.6576  139.7510  158.3673 N.3     1  UNL1       -0.1526
     14 S         143.8324  140.4412  159.6875 S.O2    1  UNL1        0.0634
     15 O         143.1031  141.6400  159.1574 O.2     1  UNL1       -0.1528
     16 O         144.5617  139.2424  160.2177 O.2     1  UNL1       -0.1528
     17 C         144.0072  141.1313  161.0078 C.ar    1  UNL1        0.1221
     18 C         144.4988  140.3611  162.1974 C.ar    1  UNL1        0.0230
     19 C         144.6736  141.0513  163.5177 C.ar    1  UNL1        0.0379
     20 C         144.3567  142.5117  163.6484 C.ar    1  UNL1        0.1347
     21 C         143.8651  143.2818  162.4588 C.ar    1  UNL1        0.0168
     22 C         143.6903  142.5916  161.1385 C.ar    1  UNL1        0.0188
     23 C         143.6351  144.7006  162.8879 C.3     1  UNL1        0.0768
     24 C         143.9846  144.8073  164.3427 C.3     1  UNL1        0.2102
     25 O         144.4306  143.4544  164.8127 O.3     1  UNL1       -0.4754
     26 C         138.5562  137.9335  165.4193 C.3     1  UNL1        0.1202
     27 C         138.3521  139.1645  166.2518 C.3     1  UNL1        0.2226
     28 O         139.4259  140.2095  166.3212 O.3     1  UNL1       -0.4740
     29 C         139.3844  141.3899  165.3967 C.ar    1  UNL1        0.1387
     30 C         138.1138  141.7357  164.6783 C.ar    1  UNL1        0.0376
     31 C         138.0724  142.9162  163.7538 C.ar    1  UNL1        0.0134
     32 C         139.3015  143.7510  163.5477 C.ar    1  UNL1        0.0686
     33 C         140.5721  143.4052  164.2661 C.ar    1  UNL1        0.0134
     34 C         140.6136  142.2247  165.1906 C.ar    1  UNL1        0.0376
     35 C         139.2600  144.9314  162.6232 C.1     1  UNL1        0.1004
     36 N         139.2186  146.1120  161.6987 N.1     1  UNL1       -0.1908
@<TRIPOS>BOND
     1    12    13    1
     2    13    11    1
     3    11    10    1
     4    10     1    1
     5     1     2    1
     6     2     3    1
     7     3     4    1
     8     4     5    1
     9     5    26    1
    10    26    27    1
    11    27    28    1
    12    28    29    1
    13    29    30   ar
    14    30    31   ar
    15    31    32   ar
    16    32    35    1
    17    35    36    3
    18    32    33   ar
    19    33    34   ar
    20     5     6    1
    21     6     7    1
    22     7     8    1
    23     7     9    1
    24    13    14    1
    25    14    15    2
    26    14    16    2
    27    14    17    1
    28    17    18   ar
    29    18    19   ar
    30    19    20   ar
    31    20    21   ar
    32    21    22   ar
    33    21    23    1
    34    23    24    1
    35    24    25    1
    36     8     1    1
    37    22    17   ar
    38     9     3    1
    39    25    20    1
    40    34    29   ar
