@<TRIPOS>MOLECULE
*****
 37 42 0 0 0
SMALL
GASTEIGER

@<TRIPOS>ATOM
      1 C         143.0373  143.2967  170.5509 C.3     1  UNL1        0.0339
      2 C         142.2902  142.4495  169.5639 C.3     1  UNL1        0.1349
      3 C         142.7766  142.3409  168.1491 C.3     1  UNL1        0.1205
      4 N         142.0295  141.4938  167.1621 N.pl3   1  UNL1       -0.3019
      5 C         142.5159  141.3852  165.7474 C.ar    1  UNL1        0.0749
      6 C         141.7688  140.5380  164.7604 C.ar    1  UNL1       -0.0053
      7 C         142.2552  140.4295  163.3455 C.ar    1  UNL1        0.0032
      8 C         143.4886  141.1681  162.9178 C.ar    1  UNL1        0.0744
      9 C         144.2022  141.2523  161.6010 C.ar    1  UNL1        0.1801
     10 N         145.3902  142.1514  161.7742 N.ar    1  UNL1       -0.0614
     11 O         145.4109  142.6230  163.1980 O.2     1  UNL1       -0.3498
     12 C         144.2357  142.0153  163.9048 C.ar    1  UNL1        0.2065
     13 C         143.7494  142.1238  165.3195 C.ar    1  UNL1        0.1899
     14 F         144.4965  142.9710  166.3065 F       1  UNL1       -0.1996
     15 C         140.5353  139.7994  165.1882 C.3     1  UNL1        0.0468
     16 C         140.0490  139.9080  166.6029 C.3     1  UNL1        0.1606
     17 C         139.3019  139.0608  165.6159 C.2     1  UNL1        0.2387
     18 O         139.7883  138.9522  164.2012 O.2     1  UNL1       -0.2741
     19 N         138.0684  138.3222  166.0438 N.am    1  UNL1       -0.2389
     20 C         137.5821  138.4307  167.4586 C.2     1  UNL1        0.3122
     21 O         136.3486  137.6921  167.8864 O.2     1  UNL1       -0.2520
     22 N         138.3291  139.2779  168.4455 N.am    1  UNL1       -0.2389
     23 C         139.5626  140.0165  168.0178 C.2     1  UNL1        0.2387
     24 O         139.8201  140.4066  168.6635 O.2     1  UNL1       -0.2741
     25 C         140.7961  140.7552  167.5899 C.3     1  UNL1        0.1166
     26 C         140.3097  140.8637  169.0048 C.3     1  UNL1        0.1341
     27 C         139.0762  140.1251  169.4325 C.3     1  UNL1        0.0338
     28 O         141.0567  141.7109  169.9918 O.3     1  UNL1       -0.3553
     29 H         137.5781  137.7661  165.3960 H       1  UNL1        0.1591
     30 H         138.0099  139.3492  169.3741 H       1  UNL1        0.1591
     31 N         143.7984  140.5589  160.3336 N.am    1  UNL1       -0.2318
     32 C         143.3935  139.1203  160.2061 C.3     1  UNL1        0.1117
     33 C         143.0736  138.8547  158.7648 C.3     1  UNL1        0.0765
     34 C         142.6252  137.5447  158.1881 C.3     1  UNL1        0.0140
     35 S         143.2808  140.1294  158.0016 S.3     1  UNL1       -0.0559
     36 C         143.7288  141.1826  158.9712 C.2     1  UNL1        0.2812
     37 O         144.0506  142.6090  158.6369 O.2     1  UNL1       -0.2623
@<TRIPOS>BOND
     1     2     1    1
     2     2     3    1
     3     3     4    1
     4     4     5    1
     5     5     6   ar
     6     6     7   ar
     7     7     8   ar
     8     8     9   ar
     9     9    31    1
    10    31    32    1
    11    32    33    1
    12    33    34    1
    13    33    35    1
    14    35    36    1
    15    36    37    2
    16     9    10   ar
    17    10    11   ar
    18    11    12   ar
    19    12    13   ar
    20    13    14    1
    21     6    15    1
    22    15    16    1
    23    16    17    1
    24    17    18    2
    25    17    19   am
    26    19    20   am
    27    20    21    2
    28    20    22   am
    29    22    23   am
    30    23    24    2
    31    25    16    1
    32    25    26    1
    33    26    27    1
    34    26    28    1
    35    28     2    1
    36    25     4    1
    37    13     5   ar
    38    23    16    1
    39    12     8   ar
    40    36    31   am
    41    19    29    1
    42    22    30    1
@<TRIPOS>MOLECULE
*****
 37 42 0 0 0
SMALL
GASTEIGER

@<TRIPOS>ATOM
      1 C         144.5627  143.5725  165.3938 C.3     1  UNL1        0.0339
      2 C         143.5597  142.5250  165.0108 C.3     1  UNL1        0.1349
      3 C         143.5990  141.9140  163.6415 C.3     1  UNL1        0.1205
      4 N         142.5960  140.8665  163.2585 N.pl3   1  UNL1       -0.3019
      5 C         142.6354  140.2555  161.8892 C.ar    1  UNL1        0.0749
      6 C         141.6323  139.2080  161.5062 C.ar    1  UNL1       -0.0053
      7 C         141.6717  138.5970  160.1369 C.ar    1  UNL1        0.0032
      8 C         142.7141  139.0334  159.1505 C.ar    1  UNL1        0.0744
      9 C         142.9982  138.6139  157.7387 C.ar    1  UNL1        0.1801
     10 N         144.1768  139.4020  157.2491 N.ar    1  UNL1       -0.0614
     11 O         144.6211  140.3087  158.3584 O.2     1  UNL1       -0.3498
     12 C         143.7171  140.0809  159.5335 C.ar    1  UNL1        0.2065
     13 C         143.6778  140.6919  160.9028 C.ar    1  UNL1        0.1899
     14 F         144.6808  141.7394  161.2858 F       1  UNL1       -0.1996
     15 C         140.5899  138.7715  162.4926 C.3     1  UNL1        0.0468
     16 C         140.5506  139.3826  163.8619 C.3     1  UNL1        0.1606
     17 C         139.5475  138.3351  163.4789 C.2     1  UNL1        0.2387
     18 O         139.5869  137.7241  162.1096 O.2     1  UNL1       -0.2741
     19 N         138.5051  137.8986  164.4653 N.am    1  UNL1       -0.2389
     20 C         138.4657  138.5097  165.8346 C.2     1  UNL1        0.3122
     21 O         137.4233  138.0732  166.8210 O.2     1  UNL1       -0.2520
     22 N         139.4688  139.5572  166.2176 N.am    1  UNL1       -0.2389
     23 C         140.5112  139.9936  165.2313 C.2     1  UNL1        0.2387
     24 O         140.9481  140.5467  165.6037 O.2     1  UNL1       -0.2741
     25 C         141.5536  140.4301  164.2449 C.3     1  UNL1        0.1166
     26 C         141.5142  141.0411  165.6143 C.3     1  UNL1        0.1341
     27 C         140.4718  140.6046  166.6006 C.3     1  UNL1        0.0338
     28 O         142.5173  142.0886  165.9972 O.3     1  UNL1       -0.3553
     29 H         137.8467  137.2112  164.2139 H       1  UNL1        0.1591
     30 H         139.4429  139.9582  167.1163 H       1  UNL1        0.1591
     31 N         142.2372  137.5865  156.9542 N.am    1  UNL1       -0.2318
     32 C         142.6885  136.1855  156.6654 C.3     1  UNL1        0.1117
     33 C         141.6215  135.5129  155.8534 C.3     1  UNL1        0.0765
     34 C         141.6587  134.1026  155.3439 C.3     1  UNL1        0.0140
     35 S         140.5108  136.4983  155.6405 S.3     1  UNL1       -0.0559
     36 C         140.8913  137.7799  156.3208 C.2     1  UNL1        0.2812
     37 O         140.0701  139.0344  156.3606 O.2     1  UNL1       -0.2623
@<TRIPOS>BOND
     1     2     1    1
     2     2     3    1
     3     3     4    1
     4     4     5    1
     5     5     6   ar
     6     6     7   ar
     7     7     8   ar
     8     8     9   ar
     9     9    31    1
    10    31    32    1
    11    32    33    1
    12    33    34    1
    13    33    35    1
    14    35    36    1
    15    36    37    2
    16     9    10   ar
    17    10    11   ar
    18    11    12   ar
    19    12    13   ar
    20    13    14    1
    21     6    15    1
    22    15    16    1
    23    16    17    1
    24    17    18    2
    25    17    19   am
    26    19    20   am
    27    20    21    2
    28    20    22   am
    29    22    23   am
    30    23    24    2
    31    25    16    1
    32    25    26    1
    33    26    27    1
    34    26    28    1
    35    28     2    1
    36    25     4    1
    37    13     5   ar
    38    23    16    1
    39    12     8   ar
    40    36    31   am
    41    19    29    1
    42    22    30    1
@<TRIPOS>MOLECULE
*****
 37 42 0 0 0
SMALL
GASTEIGER

@<TRIPOS>ATOM
      1 C         136.7510  137.8536  167.5553 C.3     1  UNL1        0.0339
      2 C         137.9720  138.6835  167.2900 C.3     1  UNL1        0.1349
      3 C         138.4467  138.8906  165.8823 C.3     1  UNL1        0.1205
      4 N         139.6677  139.7205  165.6170 N.pl3   1  UNL1       -0.3019
      5 C         140.1424  139.9276  164.2092 C.ar    1  UNL1        0.0749
      6 C         141.3635  140.7575  163.9439 C.ar    1  UNL1       -0.0053
      7 C         141.8382  140.9646  162.5361 C.ar    1  UNL1        0.0032
      8 C         141.0918  140.3418  161.3937 C.ar    1  UNL1        0.0744
      9 C         141.3200  140.3700  159.9114 C.ar    1  UNL1        0.1801
     10 N         140.2400  139.5576  159.2606 N.ar    1  UNL1       -0.0614
     11 O         139.3444  139.0273  160.3407 O.2     1  UNL1       -0.3498
     12 C         139.8708  139.5119  161.6590 C.ar    1  UNL1        0.2065
     13 C         139.3961  139.3048  163.0667 C.ar    1  UNL1        0.1899
     14 F         138.1751  138.4749  163.3321 F       1  UNL1       -0.1996
     15 C         142.1098  141.3803  165.0863 C.3     1  UNL1        0.0468
     16 C         141.6351  141.1731  166.4940 C.3     1  UNL1        0.1606
     17 C         142.8561  142.0030  166.2287 C.2     1  UNL1        0.2387
     18 O         143.3308  142.2101  164.8210 O.2     1  UNL1       -0.2741
     19 N         143.6024  142.6258  167.3712 N.am    1  UNL1       -0.2389
     20 C         143.1277  142.4187  168.7789 C.2     1  UNL1        0.3122
     21 O         143.8740  143.0415  169.9214 O.2     1  UNL1       -0.2520
     22 N         141.9067  141.5888  169.0443 N.am    1  UNL1       -0.2389
     23 C         141.1604  140.9660  167.9019 C.2     1  UNL1        0.2387
     24 O         140.5509  140.5689  168.2280 O.2     1  UNL1       -0.2741
     25 C         140.4140  140.3432  166.7594 C.3     1  UNL1        0.1166
     26 C         139.9393  140.1361  168.1672 C.3     1  UNL1        0.1341
     27 C         140.6856  140.7589  169.3096 C.3     1  UNL1        0.0338
     28 O         138.7183  139.3062  168.4325 O.3     1  UNL1       -0.3553
     29 H         144.4038  143.1705  167.1971 H       1  UNL1        0.1591
     30 H         141.5951  141.4529  169.9682 H       1  UNL1        0.1591
     31 N         142.4328  141.0851  159.2042 N.am    1  UNL1       -0.2318
     32 C         143.4479  140.4567  158.2960 C.3     1  UNL1        0.1117
     33 C         144.3684  141.5375  157.8114 C.3     1  UNL1        0.0765
     34 C         145.5309  141.3541  156.8815 C.3     1  UNL1        0.0140
     35 S         143.9221  142.8338  158.4201 S.3     1  UNL1       -0.0559
     36 C         142.7259  142.5542  159.2809 C.2     1  UNL1        0.2812
     37 O         141.9577  143.5661  160.0783 O.2     1  UNL1       -0.2623
@<TRIPOS>BOND
     1     2     1    1
     2     2     3    1
     3     3     4    1
     4     4     5    1
     5     5     6   ar
     6     6     7   ar
     7     7     8   ar
     8     8     9   ar
     9     9    31    1
    10    31    32    1
    11    32    33    1
    12    33    34    1
    13    33    35    1
    14    35    36    1
    15    36    37    2
    16     9    10   ar
    17    10    11   ar
    18    11    12   ar
    19    12    13   ar
    20    13    14    1
    21     6    15    1
    22    15    16    1
    23    16    17    1
    24    17    18    2
    25    17    19   am
    26    19    20   am
    27    20    21    2
    28    20    22   am
    29    22    23   am
    30    23    24    2
    31    25    16    1
    32    25    26    1
    33    26    27    1
    34    26    28    1
    35    28     2    1
    36    25     4    1
    37    13     5   ar
    38    23    16    1
    39    12     8   ar
    40    36    31   am
    41    19    29    1
    42    22    30    1
@<TRIPOS>MOLECULE
*****
 37 42 0 0 0
SMALL
GASTEIGER

@<TRIPOS>ATOM
      1 C         144.0901  139.9695  158.5323 C.3     1  UNL1        0.0339
      2 C         143.3616  140.8817  159.4741 C.3     1  UNL1        0.1349
      3 C         143.3145  140.5645  160.9394 C.3     1  UNL1        0.1205
      4 N         142.5861  141.4768  161.8812 N.pl3   1  UNL1       -0.3019
      5 C         142.5389  141.1596  163.3465 C.ar    1  UNL1        0.0749
      6 C         141.8105  142.0719  164.2884 C.ar    1  UNL1       -0.0053
      7 C         141.7634  141.7546  165.7537 C.ar    1  UNL1        0.0032
      8 C         142.4448  140.5251  166.2772 C.ar    1  UNL1        0.0744
      9 C         142.5679  139.9577  167.6602 C.ar    1  UNL1        0.1801
     10 N         143.3725  138.6948  167.5732 N.ar    1  UNL1       -0.0614
     11 O         143.7466  138.4816  166.1363 O.2     1  UNL1       -0.3498
     12 C         143.1732  139.6128  165.3353 C.ar    1  UNL1        0.2065
     13 C         143.2203  139.9301  163.8700 C.ar    1  UNL1        0.1899
     14 F         143.9488  139.0178  162.9282 F       1  UNL1       -0.1996
     15 C         141.1291  143.3014  163.7649 C.3     1  UNL1        0.0468
     16 C         141.1762  143.6186  162.2996 C.3     1  UNL1        0.1606
     17 C         140.4477  144.5309  163.2415 C.2     1  UNL1        0.2387
     18 O         140.4006  144.2137  164.7068 O.2     1  UNL1       -0.2741
     19 N         139.7664  145.7604  162.7180 N.am    1  UNL1       -0.2389
     20 C         139.8135  146.0776  161.2527 C.2     1  UNL1        0.3122
     21 O         139.1321  147.3072  160.7292 O.2     1  UNL1       -0.2520
     22 N         140.5419  145.1654  160.3108 N.am    1  UNL1       -0.2389
     23 C         141.2233  143.9359  160.8343 C.2     1  UNL1        0.2387
     24 O         141.5519  143.5803  160.2009 O.2     1  UNL1       -0.2741
     25 C         141.9047  142.7063  161.3578 C.3     1  UNL1        0.1166
     26 C         141.9518  143.0236  159.8924 C.3     1  UNL1        0.1341
     27 C         141.2704  144.2531  159.3690 C.3     1  UNL1        0.0338
     28 O         142.6802  142.1113  158.9506 O.3     1  UNL1       -0.3553
     29 H         139.2882  146.3592  163.3361 H       1  UNL1        0.1591
     30 H         140.5728  145.3736  159.3491 H       1  UNL1        0.1591
     31 N         141.9883  140.5494  168.9108 N.am    1  UNL1       -0.2318
     32 C         140.8626  141.5385  168.9786 C.3     1  UNL1        0.1117
     33 C         140.6111  141.8563  170.4229 C.3     1  UNL1        0.0765
     34 C         139.5720  142.8008  170.9498 C.3     1  UNL1        0.0140
     35 S         141.5814  141.0635  171.2476 S.3     1  UNL1       -0.0559
     36 C         142.4325  140.2559  170.3131 C.2     1  UNL1        0.2812
     37 O         143.5344  139.3192  170.7111 O.2     1  UNL1       -0.2623
@<TRIPOS>BOND
     1     2     1    1
     2     2     3    1
     3     3     4    1
     4     4     5    1
     5     5     6   ar
     6     6     7   ar
     7     7     8   ar
     8     8     9   ar
     9     9    31    1
    10    31    32    1
    11    32    33    1
    12    33    34    1
    13    33    35    1
    14    35    36    1
    15    36    37    2
    16     9    10   ar
    17    10    11   ar
    18    11    12   ar
    19    12    13   ar
    20    13    14    1
    21     6    15    1
    22    15    16    1
    23    16    17    1
    24    17    18    2
    25    17    19   am
    26    19    20   am
    27    20    21    2
    28    20    22   am
    29    22    23   am
    30    23    24    2
    31    25    16    1
    32    25    26    1
    33    26    27    1
    34    26    28    1
    35    28     2    1
    36    25     4    1
    37    13     5   ar
    38    23    16    1
    39    12     8   ar
    40    36    31   am
    41    19    29    1
    42    22    30    1
@<TRIPOS>MOLECULE
*****
 37 42 0 0 0
SMALL
GASTEIGER

@<TRIPOS>ATOM
      1 C         138.5646  144.9187  165.4876 C.3     1  UNL1        0.0339
      2 C         139.6075  143.9012  165.1312 C.3     1  UNL1        0.1349
      3 C         140.2128  143.8967  163.7588 C.3     1  UNL1        0.1205
      4 N         141.2557  142.8793  163.4023 N.pl3   1  UNL1       -0.3019
      5 C         141.8609  142.8747  162.0299 C.ar    1  UNL1        0.0749
      6 C         142.9039  141.8573  161.6735 C.ar    1  UNL1       -0.0053
      7 C         143.5091  141.8528  160.3009 C.ar    1  UNL1        0.0032
      8 C         143.0714  142.8658  159.2850 C.ar    1  UNL1        0.0744
      9 C         143.4857  143.1051  157.8633 C.ar    1  UNL1        0.1801
     10 N         142.6989  144.2705  157.3411 N.ar    1  UNL1       -0.0614
     11 O         141.7983  144.7514  158.4400 O.2     1  UNL1       -0.3498
     12 C         142.0285  143.8832  159.6414 C.ar    1  UNL1        0.2065
     13 C         141.4233  143.8878  161.0138 C.ar    1  UNL1        0.1899
     14 F         140.3803  144.9052  161.3702 F       1  UNL1       -0.1996
     15 C         143.3415  140.8443  162.6894 C.3     1  UNL1        0.0468
     16 C         142.7363  140.8488  164.0619 C.3     1  UNL1        0.1606
     17 C         143.7792  139.8313  163.7054 C.2     1  UNL1        0.2387
     18 O         144.3844  139.8268  162.3330 O.2     1  UNL1       -0.2741
     19 N         144.2169  138.8183  164.7215 N.am    1  UNL1       -0.2389
     20 C         143.6116  138.8228  166.0939 C.2     1  UNL1        0.3122
     21 O         144.0493  137.8098  167.1100 O.2     1  UNL1       -0.2520
     22 N         142.5687  139.8403  166.4504 N.am    1  UNL1       -0.2389
     23 C         142.1310  140.8533  165.4344 C.2     1  UNL1        0.2387
     24 O         141.5808  141.3031  165.7955 O.2     1  UNL1       -0.2741
     25 C         141.6933  141.8663  164.4183 C.3     1  UNL1        0.1166
     26 C         141.0881  141.8707  165.7908 C.3     1  UNL1        0.1341
     27 C         141.5258  140.8578  166.8068 C.3     1  UNL1        0.0338
     28 O         140.0452  142.8882  166.1473 O.3     1  UNL1       -0.3553
     29 H         144.9014  138.1505  164.4876 H       1  UNL1        0.1591
     30 H         142.1714  139.8432  167.3512 H       1  UNL1        0.1591
     31 N         144.5075  142.3173  157.0982 N.am    1  UNL1       -0.2318
     32 C         145.9278  142.7274  156.8442 C.3     1  UNL1        0.1117
     33 C         146.5865  141.6447  156.0418 C.3     1  UNL1        0.0765
     34 C         148.0086  141.6417  155.5650 C.3     1  UNL1        0.0140
     35 S         145.5732  140.5654  155.7999 S.3     1  UNL1       -0.0559
     36 C         144.2883  140.9812  156.4528 C.2     1  UNL1        0.2812
     37 O         143.0090  140.1982  156.4591 O.2     1  UNL1       -0.2623
@<TRIPOS>BOND
     1     2     1    1
     2     2     3    1
     3     3     4    1
     4     4     5    1
     5     5     6   ar
     6     6     7   ar
     7     7     8   ar
     8     8     9   ar
     9     9    31    1
    10    31    32    1
    11    32    33    1
    12    33    34    1
    13    33    35    1
    14    35    36    1
    15    36    37    2
    16     9    10   ar
    17    10    11   ar
    18    11    12   ar
    19    12    13   ar
    20    13    14    1
    21     6    15    1
    22    15    16    1
    23    16    17    1
    24    17    18    2
    25    17    19   am
    26    19    20   am
    27    20    21    2
    28    20    22   am
    29    22    23   am
    30    23    24    2
    31    25    16    1
    32    25    26    1
    33    26    27    1
    34    26    28    1
    35    28     2    1
    36    25     4    1
    37    13     5   ar
    38    23    16    1
    39    12     8   ar
    40    36    31   am
    41    19    29    1
    42    22    30    1
@<TRIPOS>MOLECULE
*****
 37 42 0 0 0
SMALL
GASTEIGER

@<TRIPOS>ATOM
      1 C         139.5615  145.9326  162.0544 C.3     1  UNL1        0.0339
      2 C         139.5884  144.4363  162.1569 C.3     1  UNL1        0.1349
      3 C         140.1378  143.6169  161.0270 C.3     1  UNL1        0.1205
      4 N         140.1647  142.1207  161.1295 N.pl3   1  UNL1       -0.3019
      5 C         140.7141  141.3013  159.9996 C.ar    1  UNL1        0.0749
      6 C         140.7410  139.8050  160.1021 C.ar    1  UNL1       -0.0053
      7 C         141.2905  138.9857  158.9721 C.ar    1  UNL1        0.0032
      8 C         141.8130  139.6625  157.7397 C.ar    1  UNL1        0.0744
      9 C         142.4099  139.1219  156.4742 C.ar    1  UNL1        0.1801
     10 N         142.7520  140.2840  155.5896 N.ar    1  UNL1       -0.0614
     11 O         142.3664  141.5429  156.3084 O.2     1  UNL1       -0.3498
     12 C         141.7861  141.1588  157.6372 C.ar    1  UNL1        0.2065
     13 C         141.2367  141.9782  158.7671 C.ar    1  UNL1        0.1899
     14 F         141.2098  143.4744  158.6646 F       1  UNL1       -0.1996
     15 C         140.2185  139.1282  161.3344 C.3     1  UNL1        0.0468
     16 C         139.6691  139.9476  162.4643 C.3     1  UNL1        0.1606
     17 C         139.6960  138.4513  162.5668 C.2     1  UNL1        0.2387
     18 O         140.2454  137.6319  161.4369 O.2     1  UNL1       -0.2741
     19 N         139.1734  137.7744  163.7993 N.am    1  UNL1       -0.2389
     20 C         138.6240  138.5938  164.9291 C.2     1  UNL1        0.3122
     21 O         138.1015  137.9170  166.1616 O.2     1  UNL1       -0.2520
     22 N         138.5971  140.0901  164.8267 N.am    1  UNL1       -0.2389
     23 C         139.1196  140.7670  163.5943 C.2     1  UNL1        0.2387
     24 O         139.0262  141.5491  163.7168 O.2     1  UNL1       -0.2741
     25 C         139.6422  141.4438  162.3618 C.3     1  UNL1        0.1166
     26 C         139.0928  142.2632  163.4918 C.3     1  UNL1        0.1341
     27 C         138.5702  141.5863  164.7242 C.3     1  UNL1        0.0338
     28 O         139.0659  143.7595  163.3893 O.3     1  UNL1       -0.3553
     29 H         139.1911  136.7924  163.8665 H       1  UNL1        0.1591
     30 H         138.2365  140.6279  165.5683 H       1  UNL1        0.1591
     31 N         142.6268  137.6735  156.1503 N.am    1  UNL1       -0.2318
     32 C         141.5878  136.5929  156.2040 C.3     1  UNL1        0.1117
     33 C         142.2396  135.3028  155.8026 C.3     1  UNL1        0.0765
     34 C         141.5676  133.9645  155.7179 C.3     1  UNL1        0.0140
     35 S         143.6813  135.5862  155.5008 S.3     1  UNL1       -0.0559
     36 C         143.9206  137.0513  155.7156 C.2     1  UNL1        0.2812
     37 O         145.2248  137.7683  155.5287 O.2     1  UNL1       -0.2623
@<TRIPOS>BOND
     1     2     1    1
     2     2     3    1
     3     3     4    1
     4     4     5    1
     5     5     6   ar
     6     6     7   ar
     7     7     8   ar
     8     8     9   ar
     9     9    31    1
    10    31    32    1
    11    32    33    1
    12    33    34    1
    13    33    35    1
    14    35    36    1
    15    36    37    2
    16     9    10   ar
    17    10    11   ar
    18    11    12   ar
    19    12    13   ar
    20    13    14    1
    21     6    15    1
    22    15    16    1
    23    16    17    1
    24    17    18    2
    25    17    19   am
    26    19    20   am
    27    20    21    2
    28    20    22   am
    29    22    23   am
    30    23    24    2
    31    25    16    1
    32    25    26    1
    33    26    27    1
    34    26    28    1
    35    28     2    1
    36    25     4    1
    37    13     5   ar
    38    23    16    1
    39    12     8   ar
    40    36    31   am
    41    19    29    1
    42    22    30    1
@<TRIPOS>MOLECULE
*****
 37 42 0 0 0
SMALL
GASTEIGER

@<TRIPOS>ATOM
      1 C         137.9769  138.7565  166.8538 C.3     1  UNL1        0.0339
      2 C         138.9655  139.6119  166.1183 C.3     1  UNL1        0.1349
      3 C         138.8211  139.8231  164.6403 C.3     1  UNL1        0.1205
      4 N         139.8097  140.6785  163.9048 N.pl3   1  UNL1       -0.3019
      5 C         139.6653  140.8897  162.4268 C.ar    1  UNL1        0.0749
      6 C         140.6539  141.7450  161.6913 C.ar    1  UNL1       -0.0053
      7 C         140.5094  141.9562  160.2132 C.ar    1  UNL1        0.0032
      8 C         139.3764  141.3121  159.4708 C.ar    1  UNL1        0.0744
      9 C         138.9804  141.3386  158.0242 C.ar    1  UNL1        0.1801
     10 N         137.7471  140.4997  157.8657 N.ar    1  UNL1       -0.0614
     11 O         137.3809  139.9546  159.2143 O.2     1  UNL1       -0.3498
     12 C         138.3878  140.4567  160.2063 C.ar    1  UNL1        0.2065
     13 C         138.5322  140.2455  161.6843 C.ar    1  UNL1        0.1899
     14 F         137.5436  139.3901  162.4198 F       1  UNL1       -0.1996
     15 C         141.7869  142.3892  162.4338 C.3     1  UNL1        0.0468
     16 C         141.9313  142.1780  163.9117 C.3     1  UNL1        0.1606
     17 C         142.9199  143.0334  163.1762 C.2     1  UNL1        0.2387
     18 O         142.7754  143.2446  161.6982 O.2     1  UNL1       -0.2741
     19 N         144.0529  143.6776  163.9188 N.am    1  UNL1       -0.2389
     20 C         144.1973  143.4664  165.3968 C.2     1  UNL1        0.3122
     21 O         145.3304  144.1106  166.1393 O.2     1  UNL1       -0.2520
     22 N         143.2087  142.6110  166.1323 N.am    1  UNL1       -0.2389
     23 C         142.0757  141.9668  165.3898 C.2     1  UNL1        0.2387
     24 O         141.6608  141.5579  165.9340 O.2     1  UNL1       -0.2741
     25 C         140.9427  141.3226  164.6473 C.3     1  UNL1        0.1166
     26 C         141.0871  141.1114  166.1253 C.3     1  UNL1        0.1341
     27 C         142.2201  141.7556  166.8678 C.3     1  UNL1        0.0338
     28 O         140.0985  140.2561  166.8609 O.3     1  UNL1       -0.3553
     29 H         144.7018  144.2390  163.4360 H       1  UNL1        0.1591
     30 H         143.3035  142.4724  167.1024 H       1  UNL1        0.1591
     31 N         139.6928  142.0749  156.9285 N.am    1  UNL1       -0.2318
     32 C         139.2514  143.3636  156.3006 C.3     1  UNL1        0.1117
     33 C         140.2574  143.7370  155.2524 C.3     1  UNL1        0.0765
     34 C         140.2088  144.9544  154.3777 C.3     1  UNL1        0.0140
     35 S         141.3205  142.6788  155.2326 S.3     1  UNL1       -0.0559
     36 C         140.9715  141.6517  156.2685 C.2     1  UNL1        0.2812
     37 O         141.7624  140.4179  156.5882 O.2     1  UNL1       -0.2623
@<TRIPOS>BOND
     1     2     1    1
     2     2     3    1
     3     3     4    1
     4     4     5    1
     5     5     6   ar
     6     6     7   ar
     7     7     8   ar
     8     8     9   ar
     9     9    31    1
    10    31    32    1
    11    32    33    1
    12    33    34    1
    13    33    35    1
    14    35    36    1
    15    36    37    2
    16     9    10   ar
    17    10    11   ar
    18    11    12   ar
    19    12    13   ar
    20    13    14    1
    21     6    15    1
    22    15    16    1
    23    16    17    1
    24    17    18    2
    25    17    19   am
    26    19    20   am
    27    20    21    2
    28    20    22   am
    29    22    23   am
    30    23    24    2
    31    25    16    1
    32    25    26    1
    33    26    27    1
    34    26    28    1
    35    28     2    1
    36    25     4    1
    37    13     5   ar
    38    23    16    1
    39    12     8   ar
    40    36    31   am
    41    19    29    1
    42    22    30    1
@<TRIPOS>MOLECULE
*****
 37 42 0 0 0
SMALL
GASTEIGER

@<TRIPOS>ATOM
      1 C         138.1678  144.7214  165.0851 C.3     1  UNL1        0.0339
      2 C         138.9939  143.4965  164.8258 C.3     1  UNL1        0.1349
      3 C         138.9874  142.8614  163.4670 C.3     1  UNL1        0.1205
      4 N         139.8135  141.6365  163.2076 N.pl3   1  UNL1       -0.3019
      5 C         139.8071  141.0014  161.8488 C.ar    1  UNL1        0.0749
      6 C         140.6332  139.7765  161.5894 C.ar    1  UNL1       -0.0053
      7 C         140.6267  139.1414  160.2305 C.ar    1  UNL1        0.0032
      8 C         139.7941  139.7312  159.1310 C.ar    1  UNL1        0.0744
      9 C         139.5887  139.3278  157.7009 C.ar    1  UNL1        0.1801
     10 N         138.6357  140.3033  157.0764 N.ar    1  UNL1       -0.0614
     11 O         138.2521  141.3096  158.1205 O.2     1  UNL1       -0.3498
     12 C         138.9680  140.9560  159.3903 C.ar    1  UNL1        0.2065
     13 C         138.9745  141.5912  160.7491 C.ar    1  UNL1        0.1899
     14 F         138.1484  142.8160  161.0085 F       1  UNL1       -0.1996
     15 C         141.4657  139.1868  162.6890 C.3     1  UNL1        0.0468
     16 C         141.4722  139.8219  164.0478 C.3     1  UNL1        0.1606
     17 C         142.2982  138.5970  163.7885 C.2     1  UNL1        0.2387
     18 O         142.2918  137.9619  162.4296 O.2     1  UNL1       -0.2741
     19 N         143.1308  138.0073  164.8881 N.am    1  UNL1       -0.2389
     20 C         143.1373  138.6424  166.2470 C.2     1  UNL1        0.3122
     21 O         143.9698  138.0526  167.3466 O.2     1  UNL1       -0.2520
     22 N         142.3112  139.8672  166.5063 N.am    1  UNL1       -0.2389
     23 C         141.4786  140.4570  165.4068 C.2     1  UNL1        0.2387
     24 O         141.1149  141.0920  165.7230 O.2     1  UNL1       -0.2741
     25 C         140.6461  141.0468  164.3072 C.3     1  UNL1        0.1166
     26 C         140.6525  141.6819  165.6661 C.3     1  UNL1        0.1341
     27 C         141.4851  141.0921  166.7656 C.3     1  UNL1        0.0338
     28 O         139.8264  142.9067  165.9254 O.3     1  UNL1       -0.3553
     29 H         143.6730  137.2033  164.7179 H       1  UNL1        0.1591
     30 H         142.3154  140.2841  167.3982 H       1  UNL1        0.1591
     31 N         140.2247  138.1547  157.0157 N.am    1  UNL1       -0.2318
     32 C         141.6566  137.7274  157.1461 C.3     1  UNL1        0.1117
     33 C         141.8573  136.5116  156.2907 C.3     1  UNL1        0.0765
     34 C         143.1405  135.7531  156.1238 C.3     1  UNL1        0.0140
     35 S         140.5494  136.1876  155.6316 S.3     1  UNL1       -0.0559
     36 C         139.5404  137.2031  156.0797 C.2     1  UNL1        0.2812
     37 O         138.1000  137.2573  155.6646 O.2     1  UNL1       -0.2623
@<TRIPOS>BOND
     1     2     1    1
     2     2     3    1
     3     3     4    1
     4     4     5    1
     5     5     6   ar
     6     6     7   ar
     7     7     8   ar
     8     8     9   ar
     9     9    31    1
    10    31    32    1
    11    32    33    1
    12    33    34    1
    13    33    35    1
    14    35    36    1
    15    36    37    2
    16     9    10   ar
    17    10    11   ar
    18    11    12   ar
    19    12    13   ar
    20    13    14    1
    21     6    15    1
    22    15    16    1
    23    16    17    1
    24    17    18    2
    25    17    19   am
    26    19    20   am
    27    20    21    2
    28    20    22   am
    29    22    23   am
    30    23    24    2
    31    25    16    1
    32    25    26    1
    33    26    27    1
    34    26    28    1
    35    28     2    1
    36    25     4    1
    37    13     5   ar
    38    23    16    1
    39    12     8   ar
    40    36    31   am
    41    19    29    1
    42    22    30    1
@<TRIPOS>MOLECULE
*****
 37 42 0 0 0
SMALL
GASTEIGER

@<TRIPOS>ATOM
      1 C         139.6111  147.8121  155.1916 C.3     1  UNL1        0.0339
      2 C         139.1685  146.4444  155.6200 C.3     1  UNL1        0.1349
      3 C         139.8265  145.7754  156.7902 C.3     1  UNL1        0.1205
      4 N         139.3840  144.4077  157.2185 N.pl3   1  UNL1       -0.3019
      5 C         140.0420  143.7387  158.3888 C.ar    1  UNL1        0.0749
      6 C         139.5994  142.3710  158.8171 C.ar    1  UNL1       -0.0053
      7 C         140.2575  141.7021  159.9874 C.ar    1  UNL1        0.0032
      8 C         141.3581  142.4008  160.7293 C.ar    1  UNL1        0.0744
      9 C         142.1870  141.9946  161.9116 C.ar    1  UNL1        0.1801
     10 N         143.1418  143.1112  162.2140 N.ar    1  UNL1       -0.0614
     11 O         142.9030  144.2075  161.2186 O.2     1  UNL1       -0.3498
     12 C         141.8006  143.7685  160.3009 C.ar    1  UNL1        0.2065
     13 C         141.1426  144.4375  159.1307 C.ar    1  UNL1        0.1899
     14 F         141.5852  145.8052  158.7024 F       1  UNL1       -0.1996
     15 C         138.4989  141.6722  158.0752 C.3     1  UNL1        0.0468
     16 C         137.8409  142.3412  156.9050 C.3     1  UNL1        0.1606
     17 C         137.3983  140.9735  157.3333 C.2     1  UNL1        0.2387
     18 O         138.0563  140.3045  158.5036 O.2     1  UNL1       -0.2741
     19 N         136.2977  140.2747  156.5914 N.am    1  UNL1       -0.2389
     20 C         135.6397  140.9437  155.4212 C.2     1  UNL1        0.3122
     21 O         134.5391  140.2449  154.6792 O.2     1  UNL1       -0.2520
     22 N         136.0822  142.3114  154.9928 N.am    1  UNL1       -0.2389
     23 C         137.1828  143.0102  155.7347 C.2     1  UNL1        0.2387
     24 O         137.2804  143.7132  155.3718 O.2     1  UNL1       -0.2741
     25 C         138.2834  143.7089  156.4767 C.3     1  UNL1        0.1166
     26 C         137.6253  144.3779  155.3064 C.3     1  UNL1        0.1341
     27 C         136.5248  143.6791  154.5645 C.3     1  UNL1        0.0338
     28 O         138.0679  145.7456  154.8780 O.3     1  UNL1       -0.3553
     29 H         136.0072  139.3770  156.8725 H       1  UNL1        0.1591
     30 H         135.6503  142.7504  154.2247 H       1  UNL1        0.1591
     31 N         142.0798  140.6991  162.6601 N.am    1  UNL1       -0.2318
     32 C         140.8161  140.0887  163.1897 C.3     1  UNL1        0.1117
     33 C         141.1729  138.7989  163.8674 C.3     1  UNL1        0.0765
     34 C         140.2138  137.8606  164.5380 C.3     1  UNL1        0.0140
     35 S         142.6571  138.6122  163.7566 S.3     1  UNL1       -0.0559
     36 C         143.2176  139.7866  163.0105 C.2     1  UNL1        0.2812
     37 O         144.6622  140.0093  162.6739 O.2     1  UNL1       -0.2623
@<TRIPOS>BOND
     1     2     1    1
     2     2     3    1
     3     3     4    1
     4     4     5    1
     5     5     6   ar
     6     6     7   ar
     7     7     8   ar
     8     8     9   ar
     9     9    31    1
    10    31    32    1
    11    32    33    1
    12    33    34    1
    13    33    35    1
    14    35    36    1
    15    36    37    2
    16     9    10   ar
    17    10    11   ar
    18    11    12   ar
    19    12    13   ar
    20    13    14    1
    21     6    15    1
    22    15    16    1
    23    16    17    1
    24    17    18    2
    25    17    19   am
    26    19    20   am
    27    20    21    2
    28    20    22   am
    29    22    23   am
    30    23    24    2
    31    25    16    1
    32    25    26    1
    33    26    27    1
    34    26    28    1
    35    28     2    1
    36    25     4    1
    37    13     5   ar
    38    23    16    1
    39    12     8   ar
    40    36    31   am
    41    19    29    1
    42    22    30    1
