@<TRIPOS>MOLECULE
*****
 25 26 0 0 0
SMALL
GASTEIGER

@<TRIPOS>ATOM
      1 C         139.9650  146.2265  162.0697 C.3     1  UNL1        0.0897
      2 N         139.9404  143.0001  165.2065 N.3     1  UNL1       -0.2727
      3 C         138.6585  143.4149  164.5471 C.3     1  UNL1        0.0721
      4 C         138.6667  144.4904  163.5015 C.3     1  UNL1        0.0191
      5 C         139.9568  145.1510  163.1153 C.3     1  UNL1        0.0224
      6 C         141.2386  144.7363  163.7746 C.3     1  UNL1        0.0191
      7 C         141.2304  143.6608  164.8202 C.3     1  UNL1        0.0721
      8 C         139.9322  141.9246  166.2521 C.3     1  UNL1        0.0721
      9 C         139.9168  140.4815  165.8435 C.3     1  UNL1        0.0173
     10 C         138.3549  139.3439  164.9680 C.3     1  UNL1        0.0000
     11 C         138.8504  139.5653  166.3664 C.3     1  UNL1        0.0013
     12 C         139.3458  139.7867  167.7648 C.3     1  UNL1        0.0000
     13 C         137.7840  138.6491  166.8893 C.3     1  UNL1        0.0000
     14 N         139.5674  145.9047  160.6596 N.am    1  UNL1       -0.3009
     15 C         140.5566  145.2695  159.7279 C.2     1  UNL1        0.2459
     16 O         141.9432  144.9560  160.2062 O.2     1  UNL1       -0.2701
     17 H         138.6573  146.1104  160.3456 H       1  UNL1        0.1497
     18 C         140.1589  144.9476  158.3177 C.ar    1  UNL1        0.0550
     19 C         140.2047  146.0138  157.2637 C.ar    1  UNL1        0.0160
     20 C         139.8071  145.6920  155.8535 C.ar    1  UNL1        0.0587
     21 CL        139.8529  146.7582  154.7995 Cl      1  UNL1       -0.0822
     22 C         139.3637  144.3039  155.4975 C.ar    1  UNL1        0.0228
     23 C         139.3180  143.2377  156.5517 C.ar    1  UNL1        0.0587
     24 CL        138.8746  141.8497  156.1957 Cl      1  UNL1       -0.0822
     25 C         139.7156  143.5596  157.9617 C.ar    1  UNL1        0.0160
@<TRIPOS>BOND
     1    10    11    1
     2    11    12    1
     3    11    13    1
     4    11     9    1
     5     9     8    1
     6     8     2    1
     7     2     3    1
     8     3     4    1
     9     4     5    1
    10     5     1    1
    11     1    14    1
    12    14    15   am
    13    15    16    2
    14    15    18    1
    15    18    19   ar
    16    19    20   ar
    17    20    21    1
    18    20    22   ar
    19    22    23   ar
    20    23    24    1
    21    23    25   ar
    22     5     6    1
    23     6     7    1
    24     7     2    1
    25    25    18   ar
    26    14    17    1
@<TRIPOS>MOLECULE
*****
 25 26 0 0 0
SMALL
GASTEIGER

@<TRIPOS>ATOM
      1 C         142.4710  138.2238  157.8790 C.3     1  UNL1        0.0897
      2 N         139.7459  138.6486  161.4348 N.3     1  UNL1       -0.2727
      3 C         139.1855  138.7334  160.0460 C.3     1  UNL1        0.0721
      4 C         140.0939  138.5918  158.8608 C.3     1  UNL1        0.0191
      5 C         141.5626  138.3654  159.0643 C.3     1  UNL1        0.0224
      6 C         142.1230  138.2806  160.4530 C.3     1  UNL1        0.0191
      7 C         141.2147  138.4222  161.6383 C.3     1  UNL1        0.0721
      8 C         138.8376  138.7902  162.6201 C.3     1  UNL1        0.0721
      9 C         139.3822  139.2835  163.9277 C.3     1  UNL1        0.0173
     10 C         138.2543  140.4162  165.3222 C.3     1  UNL1        0.0000
     11 C         138.6587  138.9765  165.2053 C.3     1  UNL1        0.0013
     12 C         139.0630  137.5368  165.0883 C.3     1  UNL1        0.0000
     13 C         137.9351  138.6695  166.4828 C.3     1  UNL1        0.0000
     14 N         143.0766  136.8908  157.5532 N.am    1  UNL1       -0.3009
     15 C         142.3386  135.9269  156.6721 C.2     1  UNL1        0.2459
     16 O         140.9950  136.2961  156.1168 O.2     1  UNL1       -0.2701
     17 H         143.9584  136.6484  157.9177 H       1  UNL1        0.1497
     18 C         142.9443  134.5938  156.3463 C.ar    1  UNL1        0.0550
     19 C         143.8567  133.9239  157.3305 C.ar    1  UNL1        0.0160
     20 C         144.4623  132.5908  157.0048 C.ar    1  UNL1        0.0587
     21 CL        145.3747  131.9209  157.9890 Cl      1  UNL1       -0.0822
     22 C         144.1556  131.9276  155.6947 C.ar    1  UNL1        0.0228
     23 C         143.2431  132.5976  154.7105 C.ar    1  UNL1        0.0587
     24 CL        142.9363  131.9345  153.4005 Cl      1  UNL1       -0.0822
     25 C         142.6375  133.9307  155.0363 C.ar    1  UNL1        0.0160
@<TRIPOS>BOND
     1    10    11    1
     2    11    12    1
     3    11    13    1
     4    11     9    1
     5     9     8    1
     6     8     2    1
     7     2     3    1
     8     3     4    1
     9     4     5    1
    10     5     1    1
    11     1    14    1
    12    14    15   am
    13    15    16    2
    14    15    18    1
    15    18    19   ar
    16    19    20   ar
    17    20    21    1
    18    20    22   ar
    19    22    23   ar
    20    23    24    1
    21    23    25   ar
    22     5     6    1
    23     6     7    1
    24     7     2    1
    25    25    18   ar
    26    14    17    1
@<TRIPOS>MOLECULE
*****
 25 26 0 0 0
SMALL
GASTEIGER

@<TRIPOS>ATOM
      1 C         142.6036  138.2399  158.1567 C.3     1  UNL1        0.0897
      2 N         144.2458  139.8777  162.0129 N.3     1  UNL1       -0.2727
      3 C         143.9256  138.4171  161.8944 C.3     1  UNL1        0.0721
      4 C         143.3781  137.8712  160.6090 C.3     1  UNL1        0.0191
      5 C         143.1510  138.7858  159.4421 C.3     1  UNL1        0.0224
      6 C         143.4713  140.2464  159.5605 C.3     1  UNL1        0.0191
      7 C         144.0187  140.7923  160.8460 C.3     1  UNL1        0.0721
      8 C         144.7933  140.4237  163.2983 C.3     1  UNL1        0.0721
      9 C         144.6254  139.6512  164.5731 C.3     1  UNL1        0.0173
     10 C         143.6195  141.3752  165.2915 C.3     1  UNL1        0.0000
     11 C         143.4303  139.8952  165.4461 C.3     1  UNL1        0.0013
     12 C         143.2411  138.4152  165.6006 C.3     1  UNL1        0.0000
     13 C         142.2352  140.1392  166.3191 C.3     1  UNL1        0.0000
     14 N         142.4692  136.7579  157.9681 N.am    1  UNL1       -0.3009
     15 C         143.2688  136.0612  156.9073 C.2     1  UNL1        0.2459
     16 O         144.2027  136.8466  156.0350 O.2     1  UNL1       -0.2701
     17 H         141.8562  136.2424  158.5407 H       1  UNL1        0.1497
     18 C         143.1343  134.5792  156.7188 C.ar    1  UNL1        0.0550
     19 C         142.0755  134.0319  155.8081 C.ar    1  UNL1        0.0160
     20 C         141.9411  132.5499  155.6195 C.ar    1  UNL1        0.0587
     21 CL        140.8823  132.0026  154.7088 Cl      1  UNL1       -0.0822
     22 C         142.8655  131.6151  156.3418 C.ar    1  UNL1        0.0228
     23 C         143.9244  132.1624  157.2525 C.ar    1  UNL1        0.0587
     24 CL        144.8488  131.2276  157.9748 Cl      1  UNL1       -0.0822
     25 C         144.0587  133.6444  157.4410 C.ar    1  UNL1        0.0160
@<TRIPOS>BOND
     1    10    11    1
     2    11    12    1
     3    11    13    1
     4    11     9    1
     5     9     8    1
     6     8     2    1
     7     2     3    1
     8     3     4    1
     9     4     5    1
    10     5     1    1
    11     1    14    1
    12    14    15   am
    13    15    16    2
    14    15    18    1
    15    18    19   ar
    16    19    20   ar
    17    20    21    1
    18    20    22   ar
    19    22    23   ar
    20    23    24    1
    21    23    25   ar
    22     5     6    1
    23     6     7    1
    24     7     2    1
    25    25    18   ar
    26    14    17    1
@<TRIPOS>MOLECULE
*****
 25 26 0 0 0
SMALL
GASTEIGER

@<TRIPOS>ATOM
      1 C         139.6851  145.9213  162.2501 C.3     1  UNL1        0.0897
      2 N         141.0819  143.2148  165.5628 N.3     1  UNL1       -0.2727
      3 C         139.6783  143.7436  165.5678 C.3     1  UNL1        0.0721
      4 C         139.2127  144.6458  164.4636 C.3     1  UNL1        0.0191
      5 C         140.1507  145.0191  163.3543 C.3     1  UNL1        0.0224
      6 C         141.5544  144.4904  163.3493 C.3     1  UNL1        0.0191
      7 C         142.0200  143.5882  164.4535 C.3     1  UNL1        0.0721
      8 C         141.5476  142.3126  166.6670 C.3     1  UNL1        0.0721
      9 C         140.8871  142.3715  168.0124 C.3     1  UNL1        0.0173
     10 C         140.5086  143.5947  169.7037 C.3     1  UNL1        0.0000
     11 C         141.6765  142.7885  169.2178 C.3     1  UNL1        0.0013
     12 C         142.8444  141.9823  168.7319 C.3     1  UNL1        0.0000
     13 C         142.4659  143.2055  170.4232 C.3     1  UNL1        0.0000
     14 N         140.3875  145.9087  160.9248 N.am    1  UNL1       -0.3009
     15 C         140.1062  144.8152  159.9373 C.2     1  UNL1        0.2459
     16 O         139.1225  143.7344  160.2751 O.2     1  UNL1       -0.2701
     17 H         141.0331  146.6181  160.7031 H       1  UNL1        0.1497
     18 C         140.8086  144.8026  158.6119 C.ar    1  UNL1        0.0550
     19 C         140.3924  145.7583  157.5334 C.ar    1  UNL1        0.0160
     20 C         141.0948  145.7457  156.2080 C.ar    1  UNL1        0.0587
     21 CL        140.6786  146.7015  155.1295 Cl      1  UNL1       -0.0822
     22 C         142.2134  144.7773  155.9613 C.ar    1  UNL1        0.0228
     23 C         142.6296  143.8215  157.0399 C.ar    1  UNL1        0.0587
     24 CL        143.7482  142.8531  156.7931 Cl      1  UNL1       -0.0822
     25 C         141.9272  143.8342  158.3652 C.ar    1  UNL1        0.0160
@<TRIPOS>BOND
     1    10    11    1
     2    11    12    1
     3    11    13    1
     4    11     9    1
     5     9     8    1
     6     8     2    1
     7     2     3    1
     8     3     4    1
     9     4     5    1
    10     5     1    1
    11     1    14    1
    12    14    15   am
    13    15    16    2
    14    15    18    1
    15    18    19   ar
    16    19    20   ar
    17    20    21    1
    18    20    22   ar
    19    22    23   ar
    20    23    24    1
    21    23    25   ar
    22     5     6    1
    23     6     7    1
    24     7     2    1
    25    25    18   ar
    26    14    17    1
@<TRIPOS>MOLECULE
*****
 25 26 0 0 0
SMALL
GASTEIGER

@<TRIPOS>ATOM
      1 C         140.1218  145.9627  161.8893 C.3     1  UNL1        0.0897
      2 N         139.3983  142.4726  164.6363 N.3     1  UNL1       -0.2727
      3 C         140.7985  142.9405  164.3709 C.3     1  UNL1        0.0721
      4 C         141.0396  144.1038  163.4552 C.3     1  UNL1        0.0191
      5 C         139.8806  144.7993  162.8050 C.3     1  UNL1        0.0224
      6 C         138.4804  144.3315  163.0704 C.3     1  UNL1        0.0191
      7 C         138.2392  143.1681  163.9861 C.3     1  UNL1        0.0721
      8 C         139.1571  141.3093  165.5520 C.3     1  UNL1        0.0721
      9 C         138.1351  140.2716  165.1931 C.3     1  UNL1        0.0173
     10 C         138.1226  138.8273  166.7467 C.3     1  UNL1        0.0000
     11 C         138.4794  138.8149  165.2898 C.3     1  UNL1        0.0013
     12 C         138.8361  138.8025  163.8329 C.3     1  UNL1        0.0000
     13 C         138.8236  137.3581  165.3865 C.3     1  UNL1        0.0000
     14 N         139.6974  145.8869  160.4526 N.am    1  UNL1       -0.3009
     15 C         140.6470  145.3624  159.4167 C.2     1  UNL1        0.2459
     16 O         142.0211  144.9137  159.8175 O.2     1  UNL1       -0.2701
     17 H         138.7956  146.1814  160.1896 H       1  UNL1        0.1497
     18 C         140.2226  145.2866  157.9800 C.ar    1  UNL1        0.0550
     19 C         139.9964  143.9518  157.3341 C.ar    1  UNL1        0.0160
     20 C         139.5719  143.8760  155.8974 C.ar    1  UNL1        0.0587
     21 CL        139.3458  142.5412  155.2516 Cl      1  UNL1       -0.0822
     22 C         139.3737  145.1351  155.1065 C.ar    1  UNL1        0.0228
     23 C         139.5999  146.4699  155.7524 C.ar    1  UNL1        0.0587
     24 CL        139.4017  147.7290  154.9616 Cl      1  UNL1       -0.0822
     25 C         140.0243  146.5457  157.1891 C.ar    1  UNL1        0.0160
@<TRIPOS>BOND
     1    10    11    1
     2    11    12    1
     3    11    13    1
     4    11     9    1
     5     9     8    1
     6     8     2    1
     7     2     3    1
     8     3     4    1
     9     4     5    1
    10     5     1    1
    11     1    14    1
    12    14    15   am
    13    15    16    2
    14    15    18    1
    15    18    19   ar
    16    19    20   ar
    17    20    21    1
    18    20    22   ar
    19    22    23   ar
    20    23    24    1
    21    23    25   ar
    22     5     6    1
    23     6     7    1
    24     7     2    1
    25    25    18   ar
    26    14    17    1
@<TRIPOS>MOLECULE
*****
 25 26 0 0 0
SMALL
GASTEIGER

@<TRIPOS>ATOM
      1 C         139.8705  145.4184  161.8337 C.3     1  UNL1        0.0897
      2 N         138.6328  141.4242  163.4965 N.3     1  UNL1       -0.2727
      3 C         137.6055  142.4938  163.2712 C.3     1  UNL1        0.0721
      4 C         138.0181  143.8251  162.7170 C.3     1  UNL1        0.0191
      5 C         139.4579  144.0870  162.3880 C.3     1  UNL1        0.0224
      6 C         140.4852  143.0174  162.6132 C.3     1  UNL1        0.0191
      7 C         140.0726  141.6861  163.1675 C.3     1  UNL1        0.0721
      8 C         138.2202  140.0928  164.0507 C.3     1  UNL1        0.0721
      9 C         139.0119  139.4637  165.1585 C.3     1  UNL1        0.0173
     10 C         141.0204  139.0666  165.7137 C.3     1  UNL1        0.0000
     11 C         140.0032  138.3808  164.8506 C.3     1  UNL1        0.0013
     12 C         138.9860  137.6951  163.9875 C.3     1  UNL1        0.0000
     13 C         140.9945  137.2980  164.5427 C.3     1  UNL1        0.0000
     14 N         139.8478  145.6537  160.3525 N.am    1  UNL1       -0.3009
     15 C         141.0466  145.3081  159.5197 C.2     1  UNL1        0.2459
     16 O         142.2680  144.7270  160.1681 O.2     1  UNL1       -0.2701
     17 H         139.0462  146.0351  159.9269 H       1  UNL1        0.1497
     18 C         141.0239  145.5435  158.0384 C.ar    1  UNL1        0.0550
     19 C         139.9196  146.3518  157.4243 C.ar    1  UNL1        0.0160
     20 C         139.8969  146.5872  155.9430 C.ar    1  UNL1        0.0587
     21 CL        138.7927  147.3956  155.3289 Cl      1  UNL1       -0.0822
     22 C         140.9785  146.0143  155.0759 C.ar    1  UNL1        0.0228
     23 C         142.0828  145.2059  155.6901 C.ar    1  UNL1        0.0587
     24 CL        143.1643  144.6329  154.8230 Cl      1  UNL1       -0.0822
     25 C         142.1054  144.9705  157.1713 C.ar    1  UNL1        0.0160
@<TRIPOS>BOND
     1    10    11    1
     2    11    12    1
     3    11    13    1
     4    11     9    1
     5     9     8    1
     6     8     2    1
     7     2     3    1
     8     3     4    1
     9     4     5    1
    10     5     1    1
    11     1    14    1
    12    14    15   am
    13    15    16    2
    14    15    18    1
    15    18    19   ar
    16    19    20   ar
    17    20    21    1
    18    20    22   ar
    19    22    23   ar
    20    23    24    1
    21    23    25   ar
    22     5     6    1
    23     6     7    1
    24     7     2    1
    25    25    18   ar
    26    14    17    1
@<TRIPOS>MOLECULE
*****
 25 26 0 0 0
SMALL
GASTEIGER

@<TRIPOS>ATOM
      1 C         139.9783  146.1489  162.1041 C.3     1  UNL1        0.0897
      2 N         139.7895  142.7759  165.0770 N.3     1  UNL1       -0.2727
      3 C         138.5652  143.1606  164.3003 C.3     1  UNL1        0.0721
      4 C         138.6282  144.2849  163.3094 C.3     1  UNL1        0.0191
      5 C         139.9153  145.0245  163.0951 C.3     1  UNL1        0.0224
      6 C         141.1396  144.6399  163.8717 C.3     1  UNL1        0.0191
      7 C         141.0767  143.5156  164.8627 C.3     1  UNL1        0.0721
      8 C         139.7265  141.6516  166.0679 C.3     1  UNL1        0.0721
      9 C         140.4698  141.7542  167.3667 C.3     1  UNL1        0.0173
     10 C         139.4506  139.9553  167.8415 C.3     1  UNL1        0.0000
     11 C         139.8828  141.1655  168.6153 C.3     1  UNL1        0.0013
     12 C         140.3150  142.3756  169.3891 C.3     1  UNL1        0.0000
     13 C         139.2958  140.5767  169.8638 C.3     1  UNL1        0.0000
     14 N         139.5981  145.9094  160.6730 N.am    1  UNL1       -0.3009
     15 C         140.5890  145.3006  159.7256 C.2     1  UNL1        0.2459
     16 O         141.9599  144.9313  160.2092 O.2     1  UNL1       -0.2701
     17 H         138.6983  146.1518  160.3556 H       1  UNL1        0.1497
     18 C         140.2087  145.0612  158.2944 C.ar    1  UNL1        0.0550
     19 C         139.7270  143.7079  157.8627 C.ar    1  UNL1        0.0160
     20 C         139.3468  143.4684  156.4316 C.ar    1  UNL1        0.0587
     21 CL        138.8650  142.1151  155.9999 Cl      1  UNL1       -0.0822
     22 C         139.4483  144.5824  155.4321 C.ar    1  UNL1        0.0228
     23 C         139.9302  145.9357  155.8639 C.ar    1  UNL1        0.0587
     24 CL        140.0318  147.0497  154.8645 Cl      1  UNL1       -0.0822
     25 C         140.3103  146.1751  157.2950 C.ar    1  UNL1        0.0160
@<TRIPOS>BOND
     1    10    11    1
     2    11    12    1
     3    11    13    1
     4    11     9    1
     5     9     8    1
     6     8     2    1
     7     2     3    1
     8     3     4    1
     9     4     5    1
    10     5     1    1
    11     1    14    1
    12    14    15   am
    13    15    16    2
    14    15    18    1
    15    18    19   ar
    16    19    20   ar
    17    20    21    1
    18    20    22   ar
    19    22    23   ar
    20    23    24    1
    21    23    25   ar
    22     5     6    1
    23     6     7    1
    24     7     2    1
    25    25    18   ar
    26    14    17    1
@<TRIPOS>MOLECULE
*****
 25 26 0 0 0
SMALL
GASTEIGER

@<TRIPOS>ATOM
      1 C         140.1246  145.8898  162.5337 C.3     1  UNL1        0.0897
      2 N         141.2355  142.8995  165.7077 N.3     1  UNL1       -0.2727
      3 C         139.8577  143.4920  165.6848 C.3     1  UNL1        0.0721
      4 C         139.4874  144.4887  164.6268 C.3     1  UNL1        0.0191
      5 C         140.4949  144.8930  163.5917 C.3     1  UNL1        0.0224
      6 C         141.8727  144.3005  163.6146 C.3     1  UNL1        0.0191
      7 C         142.2430  143.3037  164.6725 C.3     1  UNL1        0.0721
      8 C         141.6059  141.9027  166.7656 C.3     1  UNL1        0.0721
      9 C         140.9754  141.9820  168.1244 C.3     1  UNL1        0.0173
     10 C         140.5439  143.5054  169.5361 C.3     1  UNL1        0.0000
     11 C         141.7205  142.6166  169.2610 C.3     1  UNL1        0.0013
     12 C         142.8971  141.7278  168.9860 C.3     1  UNL1        0.0000
     13 C         142.4657  143.2512  170.3977 C.3     1  UNL1        0.0000
     14 N         140.7836  145.8343  161.1875 N.am    1  UNL1       -0.3009
     15 C         140.2829  144.8779  160.1461 C.2     1  UNL1        0.2459
     16 O         139.1230  143.9769  160.4510 O.2     1  UNL1       -0.2701
     17 H         141.5449  146.4257  160.9873 H       1  UNL1        0.1497
     18 C         140.9420  144.8225  158.7997 C.ar    1  UNL1        0.0550
     19 C         142.0511  143.8447  158.5473 C.ar    1  UNL1        0.0160
     20 C         142.7102  143.7893  157.2010 C.ar    1  UNL1        0.0587
     21 CL        143.8193  142.8115  156.9486 Cl      1  UNL1       -0.0822
     22 C         142.2602  144.7117  156.1071 C.ar    1  UNL1        0.0228
     23 C         141.1510  145.6896  156.3596 C.ar    1  UNL1        0.0587
     24 CL        140.7009  146.6120  155.2657 Cl      1  UNL1       -0.0822
     25 C         140.4919  145.7449  157.7058 C.ar    1  UNL1        0.0160
@<TRIPOS>BOND
     1    10    11    1
     2    11    12    1
     3    11    13    1
     4    11     9    1
     5     9     8    1
     6     8     2    1
     7     2     3    1
     8     3     4    1
     9     4     5    1
    10     5     1    1
    11     1    14    1
    12    14    15   am
    13    15    16    2
    14    15    18    1
    15    18    19   ar
    16    19    20   ar
    17    20    21    1
    18    20    22   ar
    19    22    23   ar
    20    23    24    1
    21    23    25   ar
    22     5     6    1
    23     6     7    1
    24     7     2    1
    25    25    18   ar
    26    14    17    1
@<TRIPOS>MOLECULE
*****
 25 26 0 0 0
SMALL
GASTEIGER

@<TRIPOS>ATOM
      1 C         141.7976  145.1526  162.8949 C.3     1  UNL1        0.0897
      2 N         139.8901  141.7320  165.1109 N.3     1  UNL1       -0.2727
      3 C         139.2620  143.0936  165.1489 C.3     1  UNL1        0.0721
      4 C         139.8978  144.2338  164.4103 C.3     1  UNL1        0.0191
      5 C         141.1618  144.0124  163.6336 C.3     1  UNL1        0.0224
      6 C         141.7899  142.6508  163.5955 C.3     1  UNL1        0.0191
      7 C         141.1540  141.5106  164.3341 C.3     1  UNL1        0.0721
      8 C         139.2542  140.5917  165.8495 C.3     1  UNL1        0.0721
      9 C         138.2308  139.7336  165.1669 C.3     1  UNL1        0.0173
     10 C         138.1321  139.6267  163.0505 C.3     1  UNL1        0.0000
     11 C         138.6590  138.7334  164.1343 C.3     1  UNL1        0.0013
     12 C         139.1858  137.8401  165.2180 C.3     1  UNL1        0.0000
     13 C         139.0872  137.7332  163.1017 C.3     1  UNL1        0.0000
     14 N         142.1252  145.0126  161.4379 N.am    1  UNL1       -0.3009
     15 C         141.0514  145.1958  160.4067 C.2     1  UNL1        0.2459
     16 O         139.6499  145.5188  160.8326 O.2     1  UNL1       -0.2701
     17 H         143.0451  144.8006  161.1583 H       1  UNL1        0.1497
     18 C         141.3790  145.0558  158.9496 C.ar    1  UNL1        0.0550
     19 C         142.3581  144.0131  158.4978 C.ar    1  UNL1        0.0160
     20 C         142.6858  143.8732  157.0407 C.ar    1  UNL1        0.0587
     21 CL        143.6648  142.8305  156.5889 Cl      1  UNL1       -0.0822
     22 C         142.0343  144.7759  156.0354 C.ar    1  UNL1        0.0228
     23 C         141.0551  145.8187  156.4873 C.ar    1  UNL1        0.0587
     24 CL        140.4037  146.7214  155.4820 Cl      1  UNL1       -0.0822
     25 C         140.7275  145.9586  157.9443 C.ar    1  UNL1        0.0160
@<TRIPOS>BOND
     1    10    11    1
     2    11    12    1
     3    11    13    1
     4    11     9    1
     5     9     8    1
     6     8     2    1
     7     2     3    1
     8     3     4    1
     9     4     5    1
    10     5     1    1
    11     1    14    1
    12    14    15   am
    13    15    16    2
    14    15    18    1
    15    18    19   ar
    16    19    20   ar
    17    20    21    1
    18    20    22   ar
    19    22    23   ar
    20    23    24    1
    21    23    25   ar
    22     5     6    1
    23     6     7    1
    24     7     2    1
    25    25    18   ar
    26    14    17    1
