@<TRIPOS>MOLECULE
*****
 36 40 0 0 0
SMALL
GASTEIGER

@<TRIPOS>ATOM
      1 C         138.1906  139.9488  162.6567 C.3     1  UNL1        0.2634
      2 O         138.3425  140.6609  161.3452 O.3     1  UNL1       -0.3272
      3 C         138.1884  142.1515  161.2789 C.3     1  UNL1        0.1630
      4 C         137.8822  142.9300  162.5240 C.3     1  UNL1        0.1144
      5 C         137.7303  142.2179  163.8354 C.3     1  UNL1        0.1630
      6 O         137.8845  140.7273  163.9017 O.3     1  UNL1       -0.3272
      7 C         138.3447  138.4583  162.7230 C.3     1  UNL1        0.1712
      8 O         137.7448  137.5939  161.6540 O.3     1  UNL1       -0.3791
      9 H         137.9352  136.6625  161.8466 H       1  UNL1        0.2106
     10 C         139.0988  137.8321  163.8585 C.3     1  UNL1        0.0647
     11 C         140.1183  139.7247  167.8118 C.ar    1  UNL1        0.2250
     12 C         141.5284  140.1477  168.0993 C.ar    1  UNL1        0.0593
     13 C         142.5987  139.9397  167.0692 C.ar    1  UNL1        0.0254
     14 C         142.2589  139.3088  165.7514 C.ar    1  UNL1        0.0990
     15 N         143.3292  139.1009  164.7213 N.ar    1  UNL1       -0.2400
     16 C         142.9894  138.4700  163.4035 C.ar    1  UNL1        0.1281
     17 C         141.5792  138.0470  163.1159 C.ar    1  UNL1        0.1567
     18 F         141.2394  137.4162  161.7982 F       1  UNL1       -0.2028
     19 C         140.5089  138.2550  164.1461 C.ar    1  UNL1        0.0286
     20 C         140.8488  138.8859  165.4639 C.ar    1  UNL1        0.1002
     21 N         139.7785  139.0939  166.4940 N.ar    1  UNL1       -0.2104
     22 C         139.2852  140.8659  169.9921 C.3     1  UNL1        0.2542
     23 O         139.0480  139.9327  168.8419 O.3     1  UNL1       -0.4561
     24 N         137.7281  144.4206  162.4576 N.3     1  UNL1       -0.2894
     25 H         136.9891  144.6697  163.1151 H       1  UNL1        0.1237
     26 C         138.8969  145.3098  162.7627 C.3     1  UNL1        0.1171
     27 C         140.2951  144.7842  162.6256 C.ar    1  UNL1        0.0972
     28 C         140.9847  144.1698  163.8075 C.ar    1  UNL1        0.0288
     29 C         142.3829  143.6441  163.6703 C.ar    1  UNL1        0.0814
     30 C         143.0915  143.7330  162.3512 C.ar    1  UNL1        0.2495
     31 N         142.4019  144.3474  161.1693 N.ar    1  UNL1       -0.1100
     32 N         141.0037  144.8730  161.3064 N.ar    1  UNL1       -0.1480
     33 O         144.4897  143.2073  162.2140 O.3     1  UNL1       -0.4580
     34 C         145.1793  142.5929  163.3959 C.3     1  UNL1        0.2191
     35 C         144.4707  142.5041  164.7150 C.3     1  UNL1        0.1096
     36 S         143.0725  143.0297  164.8522 S.3     1  UNL1       -0.1051
@<TRIPOS>BOND
     1    22    23    1
     2    23    11    1
     3    11    12   ar
     4    12    13   ar
     5    13    14   ar
     6    14    15   ar
     7    15    16   ar
     8    16    17   ar
     9    17    18    1
    10    17    19   ar
    11    19    10    1
    12    10     7    1
    13     7     8    1
    14     7     1    1
    15     1     2    1
    16     2     3    1
    17     3     4    1
    18     4    24    1
    19    24    26    1
    20    26    27    1
    21    27    28   ar
    22    28    29   ar
    23    29    30   ar
    24    30    31   ar
    25    31    32   ar
    26    30    33    1
    27    33    34    1
    28    34    35    1
    29    35    36    1
    30     4     5    1
    31     5     6    1
    32    19    20   ar
    33    20    21   ar
    34    21    11   ar
    35    20    14   ar
    36     6     1    1
    37    32    27   ar
    38    36    29    1
    39     8     9    1
    40    24    25    1
@<TRIPOS>MOLECULE
*****
 36 40 0 0 0
SMALL
GASTEIGER

@<TRIPOS>ATOM
      1 C         143.0293  141.3827  166.0260 C.3     1  UNL1        0.2634
      2 O         143.3283  139.9178  166.1468 O.3     1  UNL1       -0.3272
      3 C         143.8366  139.1557  164.9590 C.3     1  UNL1        0.1630
      4 C         144.0458  139.8584  163.6504 C.3     1  UNL1        0.1144
      5 C         143.7467  141.3234  163.5296 C.3     1  UNL1        0.1630
      6 O         143.2384  142.0855  164.7174 O.3     1  UNL1       -0.3272
      7 C         142.5210  142.1449  167.2137 C.3     1  UNL1        0.1712
      8 O         143.4804  142.6319  168.2589 O.3     1  UNL1       -0.3791
      9 H         142.9917  143.1020  168.9524 H       1  UNL1        0.2106
     10 C         141.0533  142.4200  167.3563 C.3     1  UNL1        0.0647
     11 C         138.9567  143.9414  163.6767 C.ar    1  UNL1        0.2250
     12 C         137.9587  143.0734  162.9693 C.ar    1  UNL1        0.0593
     13 C         137.6596  141.6982  163.4884 C.ar    1  UNL1        0.0254
     14 C         138.3584  141.1911  164.7149 C.ar    1  UNL1        0.0990
     15 N         138.0593  139.8159  165.2340 N.ar    1  UNL1       -0.2400
     16 C         138.7581  139.3088  166.4605 C.ar    1  UNL1        0.1281
     17 C         139.7562  140.1769  167.1680 C.ar    1  UNL1        0.1567
     18 F         140.4550  139.6697  168.3945 F       1  UNL1       -0.2028
     19 C         140.0553  141.5520  166.6489 C.ar    1  UNL1        0.0286
     20 C         139.3564  142.0591  165.4223 C.ar    1  UNL1        0.1002
     21 N         139.6556  143.4343  164.9032 N.ar    1  UNL1       -0.2104
     22 C         140.2243  145.4970  162.0264 C.3     1  UNL1        0.2542
     23 O         139.2559  145.3165  163.1576 O.3     1  UNL1       -0.4561
     24 N         144.5540  139.0963  162.4626 N.3     1  UNL1       -0.2894
     25 H         145.4399  138.6741  162.7408 H       1  UNL1        0.1237
     26 C         143.7225  138.0019  161.8619 C.3     1  UNL1        0.1171
     27 C         142.2337  138.1576  161.7663 C.ar    1  UNL1        0.0972
     28 C         141.6449  139.1929  160.8544 C.ar    1  UNL1        0.0288
     29 C         140.1560  139.3485  160.7588 C.ar    1  UNL1        0.0814
     30 C         139.2560  138.4690  161.5752 C.ar    1  UNL1        0.2495
     31 N         139.8448  137.4338  162.4871 N.ar    1  UNL1       -0.1100
     32 N         141.3336  137.2781  162.5827 N.ar    1  UNL1       -0.1480
     33 O         137.7671  138.6247  161.4796 O.3     1  UNL1       -0.4580
     34 C         137.1783  139.6599  160.5677 C.3     1  UNL1        0.2191
     35 C         138.0783  140.5395  159.7513 C.3     1  UNL1        0.1096
     36 S         139.5671  140.3838  159.8469 S.3     1  UNL1       -0.1051
@<TRIPOS>BOND
     1    22    23    1
     2    23    11    1
     3    11    12   ar
     4    12    13   ar
     5    13    14   ar
     6    14    15   ar
     7    15    16   ar
     8    16    17   ar
     9    17    18    1
    10    17    19   ar
    11    19    10    1
    12    10     7    1
    13     7     8    1
    14     7     1    1
    15     1     2    1
    16     2     3    1
    17     3     4    1
    18     4    24    1
    19    24    26    1
    20    26    27    1
    21    27    28   ar
    22    28    29   ar
    23    29    30   ar
    24    30    31   ar
    25    31    32   ar
    26    30    33    1
    27    33    34    1
    28    34    35    1
    29    35    36    1
    30     4     5    1
    31     5     6    1
    32    19    20   ar
    33    20    21   ar
    34    21    11   ar
    35    20    14   ar
    36     6     1    1
    37    32    27   ar
    38    36    29    1
    39     8     9    1
    40    24    25    1
@<TRIPOS>MOLECULE
*****
 36 40 0 0 0
SMALL
GASTEIGER

@<TRIPOS>ATOM
      1 C         138.1261  139.8868  162.5139 C.3     1  UNL1        0.2634
      2 O         137.6872  140.6549  163.7253 O.3     1  UNL1       -0.3272
      3 C         137.5690  142.1490  163.6637 C.3     1  UNL1        0.1630
      4 C         137.8896  142.8749  162.3908 C.3     1  UNL1        0.1144
      5 C         138.3284  142.1068  161.1795 C.3     1  UNL1        0.1630
      6 O         138.4467  140.6127  161.2411 O.3     1  UNL1       -0.3272
      7 C         138.2443  138.3927  162.5755 C.3     1  UNL1        0.1712
      8 O         137.6728  137.5492  161.4746 O.3     1  UNL1       -0.3791
      9 H         137.8341  136.6125  161.6682 H       1  UNL1        0.2106
     10 C         138.9340  137.7422  163.7379 C.3     1  UNL1        0.0647
     11 C         142.8394  137.8465  161.5047 C.ar    1  UNL1        0.2250
     12 C         144.0404  138.4975  162.1242 C.ar    1  UNL1        0.0593
     13 C         143.9397  139.1136  163.4881 C.ar    1  UNL1        0.0254
     14 C         142.6379  139.0788  164.2325 C.ar    1  UNL1        0.0990
     15 N         142.5372  139.6950  165.5964 N.ar    1  UNL1       -0.2400
     16 C         141.2354  139.6602  166.3408 C.ar    1  UNL1        0.1281
     17 C         140.0343  139.0093  165.7213 C.ar    1  UNL1        0.1567
     18 F         138.7326  138.9745  166.4657 F       1  UNL1       -0.2028
     19 C         140.1350  138.3931  164.3574 C.ar    1  UNL1        0.0286
     20 C         141.4369  138.4279  163.6130 C.ar    1  UNL1        0.1002
     21 N         141.5376  137.8118  162.2491 N.ar    1  UNL1       -0.2104
     22 C         142.5898  138.0370  158.9257 C.3     1  UNL1        0.2542
     23 O         142.9401  137.2304  160.1408 O.3     1  UNL1       -0.4561
     24 N         137.7713  144.3690  162.3293 N.3     1  UNL1       -0.2894
     25 H         136.9718  144.6251  162.9084 H       1  UNL1        0.1237
     26 C         138.9179  145.2308  162.7684 C.3     1  UNL1        0.1171
     27 C         140.3258  144.7311  162.6349 C.ar    1  UNL1        0.0972
     28 C         141.0347  144.1588  163.8265 C.ar    1  UNL1        0.0288
     29 C         142.4428  143.6591  163.6930 C.ar    1  UNL1        0.0814
     30 C         143.1418  143.7316  162.3679 C.ar    1  UNL1        0.2495
     31 N         142.4330  144.3039  161.1762 N.ar    1  UNL1       -0.1100
     32 N         141.0250  144.8036  161.3097 N.ar    1  UNL1       -0.1480
     33 O         144.5499  143.2319  162.2344 O.3     1  UNL1       -0.4580
     34 C         145.2588  142.6597  163.4260 C.3     1  UNL1        0.2191
     35 C         144.5596  142.5872  164.7512 C.3     1  UNL1        0.1096
     36 S         143.1517  143.0869  164.8847 S.3     1  UNL1       -0.1051
@<TRIPOS>BOND
     1    22    23    1
     2    23    11    1
     3    11    12   ar
     4    12    13   ar
     5    13    14   ar
     6    14    15   ar
     7    15    16   ar
     8    16    17   ar
     9    17    18    1
    10    17    19   ar
    11    19    10    1
    12    10     7    1
    13     7     8    1
    14     7     1    1
    15     1     2    1
    16     2     3    1
    17     3     4    1
    18     4    24    1
    19    24    26    1
    20    26    27    1
    21    27    28   ar
    22    28    29   ar
    23    29    30   ar
    24    30    31   ar
    25    31    32   ar
    26    30    33    1
    27    33    34    1
    28    34    35    1
    29    35    36    1
    30     4     5    1
    31     5     6    1
    32    19    20   ar
    33    20    21   ar
    34    21    11   ar
    35    20    14   ar
    36     6     1    1
    37    32    27   ar
    38    36    29    1
    39     8     9    1
    40    24    25    1
@<TRIPOS>MOLECULE
*****
 36 40 0 0 0
SMALL
GASTEIGER

@<TRIPOS>ATOM
      1 C         138.2330  140.1061  164.4854 C.3     1  UNL1        0.2634
      2 O         137.7775  140.2201  163.0608 O.3     1  UNL1       -0.3272
      3 C         137.5850  141.5723  162.4409 C.3     1  UNL1        0.1630
      4 C         137.8479  142.8107  163.2456 C.3     1  UNL1        0.1144
      5 C         138.3035  142.6966  164.6702 C.3     1  UNL1        0.1630
      6 O         138.4960  141.3443  165.2901 O.3     1  UNL1       -0.3272
      7 C         138.4256  138.7538  165.1053 C.3     1  UNL1        0.1712
      8 O         137.9213  138.4859  166.4924 O.3     1  UNL1       -0.3791
      9 H         138.1257  137.5705  166.7395 H       1  UNL1        0.2106
     10 C         139.1225  137.6694  164.3382 C.3     1  UNL1        0.0647
     11 C         143.1521  138.7020  166.0546 C.ar    1  UNL1        0.2250
     12 C         144.2914  139.0433  165.1407 C.ar    1  UNL1        0.0593
     13 C         144.0876  139.0404  163.6546 C.ar    1  UNL1        0.0254
     14 C         142.7445  138.6962  163.0825 C.ar    1  UNL1        0.0990
     15 N         142.5407  138.6933  161.5964 N.ar    1  UNL1       -0.2400
     16 C         141.1975  138.3491  161.0242 C.ar    1  UNL1        0.1281
     17 C         140.0581  138.0078  161.9382 C.ar    1  UNL1        0.1567
     18 F         138.7149  137.6636  161.3660 F       1  UNL1       -0.2028
     19 C         140.2619  138.0107  163.4243 C.ar    1  UNL1        0.0286
     20 C         141.6051  138.3549  163.9964 C.ar    1  UNL1        0.1002
     21 N         141.8089  138.3578  165.4825 N.ar    1  UNL1       -0.2104
     22 C         142.5163  139.5922  168.4112 C.3     1  UNL1        0.2542
     23 O         143.3559  138.7049  167.5407 O.3     1  UNL1       -0.4561
     24 N         137.6554  144.1629  162.6257 N.3     1  UNL1       -0.2894
     25 H         136.9167  144.6267  163.1545 H       1  UNL1        0.1237
     26 C         138.8042  145.1245  162.5518 C.3     1  UNL1        0.1171
     27 C         140.2122  144.6217  162.6730 C.ar    1  UNL1        0.0972
     28 C         140.7900  143.7443  161.6023 C.ar    1  UNL1        0.0288
     29 C         142.1980  143.2415  161.7235 C.ar    1  UNL1        0.0814
     30 C         143.0282  143.6161  162.9153 C.ar    1  UNL1        0.2495
     31 N         142.4504  144.4935  163.9860 N.ar    1  UNL1       -0.1100
     32 N         141.0424  144.9963  163.8648 N.ar    1  UNL1       -0.1480
     33 O         144.4363  143.1133  163.0365 O.3     1  UNL1       -0.4580
     34 C         145.0141  142.2359  161.9659 C.3     1  UNL1        0.2191
     35 C         144.1838  141.8613  160.7740 C.3     1  UNL1        0.1096
     36 S         142.7759  142.3641  160.6529 S.3     1  UNL1       -0.1051
@<TRIPOS>BOND
     1    22    23    1
     2    23    11    1
     3    11    12   ar
     4    12    13   ar
     5    13    14   ar
     6    14    15   ar
     7    15    16   ar
     8    16    17   ar
     9    17    18    1
    10    17    19   ar
    11    19    10    1
    12    10     7    1
    13     7     8    1
    14     7     1    1
    15     1     2    1
    16     2     3    1
    17     3     4    1
    18     4    24    1
    19    24    26    1
    20    26    27    1
    21    27    28   ar
    22    28    29   ar
    23    29    30   ar
    24    30    31   ar
    25    31    32   ar
    26    30    33    1
    27    33    34    1
    28    34    35    1
    29    35    36    1
    30     4     5    1
    31     5     6    1
    32    19    20   ar
    33    20    21   ar
    34    21    11   ar
    35    20    14   ar
    36     6     1    1
    37    32    27   ar
    38    36    29    1
    39     8     9    1
    40    24    25    1
@<TRIPOS>MOLECULE
*****
 36 40 0 0 0
SMALL
GASTEIGER

@<TRIPOS>ATOM
      1 C         144.0776  142.3988  163.7664 C.3     1  UNL1        0.2634
      2 O         143.2124  142.3325  164.9900 O.3     1  UNL1       -0.3272
      3 C         142.0689  143.2894  165.1527 C.3     1  UNL1        0.1630
      4 C         141.7903  144.3126  164.0917 C.3     1  UNL1        0.1144
      5 C         142.6554  144.3789  162.8681 C.3     1  UNL1        0.1630
      6 O         143.7991  143.4219  162.7055 O.3     1  UNL1       -0.3272
      7 C         145.2212  141.4419  163.6037 C.3     1  UNL1        0.1712
      8 O         146.4657  141.8753  162.8873 O.3     1  UNL1       -0.3791
      9 H         147.1010  141.1425  162.8705 H       1  UNL1        0.2106
     10 C         145.1203  140.0514  164.1575 C.3     1  UNL1        0.0647
     11 C         143.5667  139.2321  160.0144 C.ar    1  UNL1        0.2250
     12 C         142.3061  138.4407  159.8291 C.ar    1  UNL1        0.0593
     13 C         141.5633  137.9223  161.0247 C.ar    1  UNL1        0.0254
     14 C         142.0812  138.1954  162.4057 C.ar    1  UNL1        0.0990
     15 N         141.3384  137.6770  163.6014 N.ar    1  UNL1       -0.2400
     16 C         141.8562  137.9501  164.9824 C.ar    1  UNL1        0.1281
     17 C         143.1169  138.7416  165.1678 C.ar    1  UNL1        0.1567
     18 F         143.6347  139.0147  166.5488 F       1  UNL1       -0.2028
     19 C         143.8597  139.2600  163.9721 C.ar    1  UNL1        0.0286
     20 C         143.3418  138.9868  162.5911 C.ar    1  UNL1        0.1002
     21 N         144.0845  139.5052  161.3954 N.ar    1  UNL1       -0.2104
     22 C         144.1816  141.1917  158.4233 C.3     1  UNL1        0.2542
     23 O         144.3094  139.7505  158.8188 O.3     1  UNL1       -0.4561
     24 N         140.6467  145.2695  164.2544 N.3     1  UNL1       -0.2894
     25 H         140.7363  145.9641  163.5129 H       1  UNL1        0.1237
     26 C         139.2347  144.7656  164.2075 C.3     1  UNL1        0.1171
     27 C         138.8575  143.6798  163.2439 C.ar    1  UNL1        0.0972
     28 C         138.8113  142.2524  163.7028 C.ar    1  UNL1        0.0288
     29 C         138.4340  141.1666  162.7391 C.ar    1  UNL1        0.0814
     30 C         138.1030  141.5081  161.3166 C.ar    1  UNL1        0.2495
     31 N         138.1492  142.9354  160.8576 N.ar    1  UNL1       -0.1100
     32 N         138.5264  144.0212  161.8212 N.ar    1  UNL1       -0.1480
     33 O         137.7258  140.4222  160.3529 O.3     1  UNL1       -0.4580
     34 C         137.6796  138.9949  160.8118 C.3     1  UNL1        0.2191
     35 C         138.0106  138.6534  162.2345 C.3     1  UNL1        0.1096
     36 S         138.3879  139.7393  163.1981 S.3     1  UNL1       -0.1051
@<TRIPOS>BOND
     1    22    23    1
     2    23    11    1
     3    11    12   ar
     4    12    13   ar
     5    13    14   ar
     6    14    15   ar
     7    15    16   ar
     8    16    17   ar
     9    17    18    1
    10    17    19   ar
    11    19    10    1
    12    10     7    1
    13     7     8    1
    14     7     1    1
    15     1     2    1
    16     2     3    1
    17     3     4    1
    18     4    24    1
    19    24    26    1
    20    26    27    1
    21    27    28   ar
    22    28    29   ar
    23    29    30   ar
    24    30    31   ar
    25    31    32   ar
    26    30    33    1
    27    33    34    1
    28    34    35    1
    29    35    36    1
    30     4     5    1
    31     5     6    1
    32    19    20   ar
    33    20    21   ar
    34    21    11   ar
    35    20    14   ar
    36     6     1    1
    37    32    27   ar
    38    36    29    1
    39     8     9    1
    40    24    25    1
@<TRIPOS>MOLECULE
*****
 36 40 0 0 0
SMALL
GASTEIGER

@<TRIPOS>ATOM
      1 C         143.4875  141.9421  163.9564 C.3     1  UNL1        0.2634
      2 O         142.4505  142.4496  164.9141 O.3     1  UNL1       -0.3272
      3 C         141.7534  143.7501  164.6447 C.3     1  UNL1        0.1630
      4 C         142.0932  144.5431  163.4176 C.3     1  UNL1        0.1144
      5 C         143.1302  144.0356  162.4600 C.3     1  UNL1        0.1630
      6 O         143.8274  142.7351  162.7294 O.3     1  UNL1       -0.3272
      7 C         144.1847  140.6416  164.2259 C.3     1  UNL1        0.1712
      8 O         145.5542  140.3947  163.6658 O.3     1  UNL1       -0.3791
      9 H         145.8581  139.5128  163.9319 H       1  UNL1        0.2106
     10 C         143.5125  139.5880  165.0554 C.3     1  UNL1        0.0647
     11 C         139.6785  139.8601  167.3955 C.ar    1  UNL1        0.2250
     12 C         138.4403  139.1826  166.8878 C.ar    1  UNL1        0.0593
     13 C         138.4800  138.4145  165.6001 C.ar    1  UNL1        0.0254
     14 C         139.7580  138.3238  164.8200 C.ar    1  UNL1        0.0990
     15 N         139.7977  137.5556  163.5322 N.ar    1  UNL1       -0.2400
     16 C         141.0757  137.4649  162.7522 C.ar    1  UNL1        0.1281
     17 C         142.3140  138.1423  163.2599 C.ar    1  UNL1        0.1567
     18 F         143.5920  138.0516  162.4798 F       1  UNL1       -0.2028
     19 C         142.2743  138.9105  164.5476 C.ar    1  UNL1        0.0286
     20 C         140.9962  139.0012  165.3277 C.ar    1  UNL1        0.1002
     21 N         140.9565  139.7694  166.6155 N.ar    1  UNL1       -0.2104
     22 C         140.3841  140.1214  169.8822 C.3     1  UNL1        0.2542
     23 O         139.6387  140.6283  168.6833 O.3     1  UNL1       -0.4561
     24 N         141.3960  145.8436  163.1482 N.3     1  UNL1       -0.2894
     25 H         142.0073  146.3841  162.5361 H       1  UNL1        0.1237
     26 C         140.0359  145.8485  162.5157 C.3     1  UNL1        0.1171
     27 C         139.5963  144.6879  161.6734 C.ar    1  UNL1        0.0972
     28 C         139.0004  143.4736  162.3218 C.ar    1  UNL1        0.0288
     29 C         138.5608  142.3129  161.4794 C.ar    1  UNL1        0.0814
     30 C         138.7171  142.3666  159.9885 C.ar    1  UNL1        0.2495
     31 N         139.3129  143.5808  159.3401 N.ar    1  UNL1       -0.1100
     32 N         139.7525  144.7415  160.1824 N.ar    1  UNL1       -0.1480
     33 O         138.2774  141.2059  159.1461 O.3     1  UNL1       -0.4580
     34 C         137.6816  139.9916  159.7945 C.3     1  UNL1        0.2191
     35 C         137.5254  139.9380  161.2855 C.3     1  UNL1        0.1096
     36 S         137.9650  141.0987  162.1278 S.3     1  UNL1       -0.1051
@<TRIPOS>BOND
     1    22    23    1
     2    23    11    1
     3    11    12   ar
     4    12    13   ar
     5    13    14   ar
     6    14    15   ar
     7    15    16   ar
     8    16    17   ar
     9    17    18    1
    10    17    19   ar
    11    19    10    1
    12    10     7    1
    13     7     8    1
    14     7     1    1
    15     1     2    1
    16     2     3    1
    17     3     4    1
    18     4    24    1
    19    24    26    1
    20    26    27    1
    21    27    28   ar
    22    28    29   ar
    23    29    30   ar
    24    30    31   ar
    25    31    32   ar
    26    30    33    1
    27    33    34    1
    28    34    35    1
    29    35    36    1
    30     4     5    1
    31     5     6    1
    32    19    20   ar
    33    20    21   ar
    34    21    11   ar
    35    20    14   ar
    36     6     1    1
    37    32    27   ar
    38    36    29    1
    39     8     9    1
    40    24    25    1
@<TRIPOS>MOLECULE
*****
 36 40 0 0 0
SMALL
GASTEIGER

@<TRIPOS>ATOM
      1 C         142.5946  144.0412  160.5502 C.3     1  UNL1        0.2634
      2 O         143.0894  144.5531  161.8704 O.3     1  UNL1       -0.3272
      3 C         144.1717  143.8165  162.6025 C.3     1  UNL1        0.1630
      4 C         144.7593  142.5679  162.0143 C.3     1  UNL1        0.1144
      5 C         144.2644  142.0560  160.6940 C.3     1  UNL1        0.1630
      6 O         143.1820  142.7927  159.9620 O.3     1  UNL1       -0.3272
      7 C         141.5123  144.7778  159.8181 C.3     1  UNL1        0.1712
      8 O         141.8499  145.9905  159.0025 O.3     1  UNL1       -0.3791
      9 H         141.0418  146.3436  158.5984 H       1  UNL1        0.2106
     10 C         140.0922  144.3017  159.9017 C.3     1  UNL1        0.0647
     11 C         138.3873  140.2071  160.6614 C.ar    1  UNL1        0.2250
     12 C         137.7825  139.8821  161.9950 C.ar    1  UNL1        0.0593
     13 C         137.7460  140.9220  163.0754 C.ar    1  UNL1        0.0254
     14 C         138.3143  142.2869  162.8222 C.ar    1  UNL1        0.0990
     15 N         138.2778  143.3268  163.9027 N.ar    1  UNL1       -0.2400
     16 C         138.8461  144.6916  163.6495 C.ar    1  UNL1        0.1281
     17 C         139.4509  145.0167  162.3158 C.ar    1  UNL1        0.1567
     18 F         140.0192  146.3815  162.0626 F       1  UNL1       -0.2028
     19 C         139.4874  143.9768  161.2354 C.ar    1  UNL1        0.0286
     20 C         138.9191  142.6118  161.4886 C.ar    1  UNL1        0.1002
     21 N         138.9556  141.5720  160.4082 N.ar    1  UNL1       -0.2104
     22 C         139.2405  139.3989  158.3443 C.3     1  UNL1        0.2542
     23 O         138.4238  139.1672  159.5810 O.3     1  UNL1       -0.4561
     24 N         145.8416  141.8313  162.7463 N.3     1  UNL1       -0.2894
     25 H         146.4853  142.5356  163.1067 H       1  UNL1        0.1237
     26 C         145.4924  140.9346  163.8970 C.3     1  UNL1        0.1171
     27 C         144.2607  140.0808  163.8357 C.ar    1  UNL1        0.0972
     28 C         143.1306  140.3249  164.7913 C.ar    1  UNL1        0.0288
     29 C         141.8988  139.4710  164.7299 C.ar    1  UNL1        0.0814
     30 C         141.7973  138.3731  163.7130 C.ar    1  UNL1        0.2495
     31 N         142.9274  138.1290  162.7574 N.ar    1  UNL1       -0.1100
     32 N         144.1591  138.9828  162.8187 N.ar    1  UNL1       -0.1480
     33 O         140.5655  137.5192  163.6516 O.3     1  UNL1       -0.4580
     34 C         139.4353  137.7632  164.6072 C.3     1  UNL1        0.2191
     35 C         139.5370  138.8612  165.6242 C.3     1  UNL1        0.1096
     36 S         140.7687  139.7151  165.6855 S.3     1  UNL1       -0.1051
@<TRIPOS>BOND
     1    22    23    1
     2    23    11    1
     3    11    12   ar
     4    12    13   ar
     5    13    14   ar
     6    14    15   ar
     7    15    16   ar
     8    16    17   ar
     9    17    18    1
    10    17    19   ar
    11    19    10    1
    12    10     7    1
    13     7     8    1
    14     7     1    1
    15     1     2    1
    16     2     3    1
    17     3     4    1
    18     4    24    1
    19    24    26    1
    20    26    27    1
    21    27    28   ar
    22    28    29   ar
    23    29    30   ar
    24    30    31   ar
    25    31    32   ar
    26    30    33    1
    27    33    34    1
    28    34    35    1
    29    35    36    1
    30     4     5    1
    31     5     6    1
    32    19    20   ar
    33    20    21   ar
    34    21    11   ar
    35    20    14   ar
    36     6     1    1
    37    32    27   ar
    38    36    29    1
    39     8     9    1
    40    24    25    1
@<TRIPOS>MOLECULE
*****
 36 40 0 0 0
SMALL
GASTEIGER

@<TRIPOS>ATOM
      1 C         138.3320  140.4921  164.7811 C.3     1  UNL1        0.2634
      2 O         138.5913  141.8223  165.4242 O.3     1  UNL1       -0.3272
      3 C         138.3722  143.0864  164.6471 C.3     1  UNL1        0.1630
      4 C         137.8938  143.0204  163.2268 C.3     1  UNL1        0.1144
      5 C         137.6346  141.6902  162.5838 C.3     1  UNL1        0.1630
      6 O         137.8537  140.4261  163.3610 O.3     1  UNL1       -0.3272
      7 C         138.5511  139.2280  165.5582 C.3     1  UNL1        0.1712
      8 O         137.4777  138.7129  166.4706 O.3     1  UNL1       -0.3791
      9 H         137.7784  137.8932  166.8932 H       1  UNL1        0.2106
     10 C         139.8437  138.4789  165.4230 C.3     1  UNL1        0.0647
     11 C         142.2812  141.8012  167.2316 C.ar    1  UNL1        0.2250
     12 C         143.4190  142.4019  166.4606 C.ar    1  UNL1        0.0593
     13 C         143.7444  141.8952  165.0868 C.ar    1  UNL1        0.0254
     14 C         142.9319  140.7877  164.4839 C.ar    1  UNL1        0.0990
     15 N         143.2573  140.2810  163.1101 N.ar    1  UNL1       -0.2400
     16 C         142.4448  139.1736  162.5073 C.ar    1  UNL1        0.1281
     17 C         141.3069  138.5729  163.2782 C.ar    1  UNL1        0.1567
     18 F         140.4944  137.4654  162.6754 F       1  UNL1       -0.2028
     19 C         140.9815  139.0796  164.6520 C.ar    1  UNL1        0.0286
     20 C         141.7941  140.1870  165.2549 C.ar    1  UNL1        0.1002
     21 N         141.4687  140.6938  166.6287 N.ar    1  UNL1       -0.2104
     22 C         140.6293  142.9557  168.8712 C.3     1  UNL1        0.2542
     23 O         141.9558  142.3079  168.6054 O.3     1  UNL1       -0.4561
     24 N         137.6748  144.2845  162.4497 N.3     1  UNL1       -0.2894
     25 H         136.8778  144.7576  162.8756 H       1  UNL1        0.1237
     26 C         138.7742  145.2993  162.3429 C.3     1  UNL1        0.1171
     27 C         140.2025  144.8507  162.2501 C.ar    1  UNL1        0.0972
     28 C         140.6252  143.9149  161.1567 C.ar    1  UNL1        0.0288
     29 C         142.0536  143.4663  161.0639 C.ar    1  UNL1        0.0814
     30 C         143.0592  143.9535  162.0645 C.ar    1  UNL1        0.2495
     31 N         142.6365  144.8894  163.1579 N.ar    1  UNL1       -0.1100
     32 N         141.2082  145.3380  163.2507 N.ar    1  UNL1       -0.1480
     33 O         144.4876  143.5050  161.9717 O.3     1  UNL1       -0.4580
     34 C         144.9103  142.5691  160.8783 C.3     1  UNL1        0.2191
     35 C         143.9045  142.0819  159.8776 C.3     1  UNL1        0.1096
     36 S         142.4762  142.5305  159.9705 S.3     1  UNL1       -0.1051
@<TRIPOS>BOND
     1    22    23    1
     2    23    11    1
     3    11    12   ar
     4    12    13   ar
     5    13    14   ar
     6    14    15   ar
     7    15    16   ar
     8    16    17   ar
     9    17    18    1
    10    17    19   ar
    11    19    10    1
    12    10     7    1
    13     7     8    1
    14     7     1    1
    15     1     2    1
    16     2     3    1
    17     3     4    1
    18     4    24    1
    19    24    26    1
    20    26    27    1
    21    27    28   ar
    22    28    29   ar
    23    29    30   ar
    24    30    31   ar
    25    31    32   ar
    26    30    33    1
    27    33    34    1
    28    34    35    1
    29    35    36    1
    30     4     5    1
    31     5     6    1
    32    19    20   ar
    33    20    21   ar
    34    21    11   ar
    35    20    14   ar
    36     6     1    1
    37    32    27   ar
    38    36    29    1
    39     8     9    1
    40    24    25    1
@<TRIPOS>MOLECULE
*****
 36 40 0 0 0
SMALL
GASTEIGER

@<TRIPOS>ATOM
      1 C         144.2497  140.7188  162.5176 C.3     1  UNL1        0.2634
      2 O         143.4368  140.4213  161.2926 O.3     1  UNL1       -0.3272
      3 C         142.4746  139.2706  161.2922 C.3     1  UNL1        0.1630
      4 C         142.3254  138.4173  162.5169 C.3     1  UNL1        0.1144
      5 C         143.1384  138.7148  163.7419 C.3     1  UNL1        0.1630
      6 O         144.1005  139.8656  163.7422 O.3     1  UNL1       -0.3272
      7 C         145.2118  141.8696  162.5179 C.3     1  UNL1        0.1712
      8 O         146.5286  141.7461  163.2258 O.3     1  UNL1       -0.3791
      9 H         147.0262  142.5731  163.1294 H       1  UNL1        0.2106
     10 C         144.8573  143.1439  161.8104 C.3     1  UNL1        0.0647
     11 C         141.7616  143.9828  158.6540 C.ar    1  UNL1        0.2250
     12 C         140.5031  144.7152  159.0138 C.ar    1  UNL1        0.0593
     13 C         140.2764  145.1680  160.4257 C.ar    1  UNL1        0.0254
     14 C         141.3082  144.8884  161.4779 C.ar    1  UNL1        0.0990
     15 N         141.0815  145.3412  162.8898 N.ar    1  UNL1       -0.2400
     16 C         142.1134  145.0616  163.9419 C.ar    1  UNL1        0.1281
     17 C         143.3720  144.3292  163.5822 C.ar    1  UNL1        0.1567
     18 F         144.4039  144.0496  164.6343 F       1  UNL1       -0.2028
     19 C         143.5987  143.8763  162.1702 C.ar    1  UNL1        0.0286
     20 C         142.5668  144.1560  161.1181 C.ar    1  UNL1        0.1002
     21 N         142.7935  143.7032  159.7061 N.ar    1  UNL1       -0.2104
     22 C         142.2391  144.5398  156.1617 C.3     1  UNL1        0.2542
     23 O         141.9884  143.5299  157.2421 O.3     1  UNL1       -0.4561
     24 N         141.3633  137.2665  162.5165 N.3     1  UNL1       -0.2894
     25 H         141.7409  136.5668  163.1554 H       1  UNL1        0.1237
     26 C         139.9325  137.4851  162.9102 C.3     1  UNL1        0.1171
     27 C         139.4996  138.8129  163.4573 C.ar    1  UNL1        0.0972
     28 C         139.0645  139.9031  162.5234 C.ar    1  UNL1        0.0288
     29 C         138.6316  141.2310  163.0706 C.ar    1  UNL1        0.0814
     30 C         138.6337  141.4687  164.5516 C.ar    1  UNL1        0.2495
     31 N         139.0688  140.3785  165.4855 N.ar    1  UNL1       -0.1100
     32 N         139.5017  139.0506  164.9384 N.ar    1  UNL1       -0.1480
     33 O         138.2008  142.7966  165.0988 O.3     1  UNL1       -0.4580
     34 C         137.7657  143.8868  164.1649 C.3     1  UNL1        0.2191
     35 C         137.7636  143.6491  162.6838 C.3     1  UNL1        0.1096
     36 S         138.1965  142.3212  162.1367 S.3     1  UNL1       -0.1051
@<TRIPOS>BOND
     1    22    23    1
     2    23    11    1
     3    11    12   ar
     4    12    13   ar
     5    13    14   ar
     6    14    15   ar
     7    15    16   ar
     8    16    17   ar
     9    17    18    1
    10    17    19   ar
    11    19    10    1
    12    10     7    1
    13     7     8    1
    14     7     1    1
    15     1     2    1
    16     2     3    1
    17     3     4    1
    18     4    24    1
    19    24    26    1
    20    26    27    1
    21    27    28   ar
    22    28    29   ar
    23    29    30   ar
    24    30    31   ar
    25    31    32   ar
    26    30    33    1
    27    33    34    1
    28    34    35    1
    29    35    36    1
    30     4     5    1
    31     5     6    1
    32    19    20   ar
    33    20    21   ar
    34    21    11   ar
    35    20    14   ar
    36     6     1    1
    37    32    27   ar
    38    36    29    1
    39     8     9    1
    40    24    25    1
