@<TRIPOS>MOLECULE
*****
 36 40 0 0 0
SMALL
GASTEIGER

@<TRIPOS>ATOM
      1 C         137.9448  142.4449  164.8286 C.3     1  UNL1        0.0768
      2 N         138.2164  141.0013  164.5250 N.3     1  UNL1       -0.2724
      3 C         138.2960  139.8890  165.5283 C.3     1  UNL1        0.0721
      4 C         138.5849  138.6168  164.7881 C.3     1  UNL1        0.0187
      5 C         138.6838  138.9427  163.3273 C.3     1  UNL1        0.0178
      6 C         138.4561  140.4164  163.1647 C.3     1  UNL1        0.0721
      7 C         138.9617  137.9663  162.2231 C.3     1  UNL1        0.0077
      8 C         140.2684  138.0170  161.4884 C.3     1  UNL1        0.0459
      9 C         141.4827  138.5910  162.1564 C.ar    1  UNL1        0.0603
     10 C         142.0180  137.9615  163.4083 C.ar    1  UNL1        0.0145
     11 C         143.2322  138.5354  164.0764 C.ar    1  UNL1       -0.0003
     12 C         143.9112  139.7388  163.4925 C.ar    1  UNL1        0.0092
     13 C         143.3759  140.3683  162.2406 C.ar    1  UNL1        0.1240
     14 N         142.1616  139.7943  161.5725 N.ar    1  UNL1       -0.2356
     15 N         144.0548  141.5716  161.6567 N.pl3   1  UNL1       -0.3184
     16 C         145.2690  142.1455  162.3247 C.3     1  UNL1        0.0885
     17 C         145.8043  141.5161  163.5766 C.3     1  UNL1        0.0260
     18 C         145.1254  140.3127  164.1605 C.3     1  UNL1        0.0309
     19 H         143.7035  141.9847  160.8350 H       1  UNL1        0.1482
     20 C         139.0468  143.4559  164.7127 C.3     1  UNL1        0.0439
     21 C         141.9040  142.1894  167.1585 C.ar    1  UNL1        0.0821
     22 C         143.1295  142.5335  166.3652 C.ar    1  UNL1        0.0191
     23 C         142.9942  143.1852  165.0209 C.ar    1  UNL1        0.0012
     24 C         141.6333  143.4927  164.4701 C.ar    1  UNL1       -0.0041
     25 C         140.4077  143.1484  165.2635 C.ar    1  UNL1       -0.0193
     26 C         140.5431  142.4968  166.6077 C.ar    1  UNL1        0.0149
     27 C         142.8513  139.1163  167.7139 C.3     1  UNL1        0.0522
     28 C         142.4747  140.1252  168.7580 C.ar    1  UNL1        0.0624
     29 C         142.4674  139.8987  170.2408 C.ar    1  UNL1        0.0372
     30 C         142.0275  141.1712  170.9020 C.ar    1  UNL1        0.1217
     31 N         141.7629  142.1841  169.8278 N.ar    1  UNL1       -0.1638
     32 N         142.0393  141.5377  168.5028 N.ar    1  UNL1       -0.2337
     33 C         138.7879  144.7744  164.0458 C.3     1  UNL1        0.0474
     34 C         138.6639  144.8482  162.5528 C.2     1  UNL1        0.0507
     35 O         139.1768  146.0500  161.8161 O.co2   1  UNL1       -0.5492
     36 O         138.0271  143.7203  161.7964 O.co2   1  UNL1       -0.5492
@<TRIPOS>UNITY_ATOM_ATTR
35 1
charge -1
@<TRIPOS>BOND
     1    27    28    1
     2    28    29   ar
     3    29    30   ar
     4    30    31   ar
     5    31    32   ar
     6    32    21    1
     7    21    22   ar
     8    22    23   ar
     9    23    24   ar
    10    24    25   ar
    11    25    20    1
    12    20    33    1
    13    33    34    1
    14    34    35   ar
    15    34    36   ar
    16    20     1    1
    17     1     2    1
    18     2     3    1
    19     3     4    1
    20     4     5    1
    21     5     7    1
    22     7     8    1
    23     8     9    1
    24     9    10   ar
    25    10    11   ar
    26    11    12   ar
    27    12    13   ar
    28    13    14   ar
    29    13    15    1
    30    15    16    1
    31    16    17    1
    32    17    18    1
    33     5     6    1
    34    25    26   ar
    35    32    28   ar
    36    26    21   ar
    37     6     2    1
    38    14     9   ar
    39    18    12    1
    40    15    19    1
@<TRIPOS>MOLECULE
*****
 36 40 0 0 0
SMALL
GASTEIGER

@<TRIPOS>ATOM
      1 C         140.4459  144.1802  164.7936 C.3     1  UNL1        0.0768
      2 N         141.8523  144.0131  164.2995 N.3     1  UNL1       -0.2724
      3 C         142.5330  144.8673  163.2713 C.3     1  UNL1        0.0721
      4 C         143.9263  144.3446  163.0832 C.3     1  UNL1        0.0187
      5 C         144.1068  143.1674  163.9950 C.3     1  UNL1        0.0178
      6 C         142.8250  142.9625  164.7467 C.3     1  UNL1        0.0721
      7 C         145.3507  142.3402  164.1312 C.3     1  UNL1        0.0077
      8 C         145.3579  140.9144  163.6654 C.3     1  UNL1        0.0459
      9 C         144.1436  140.0556  163.8601 C.ar    1  UNL1        0.0603
     10 C         143.9576  139.2992  165.1420 C.ar    1  UNL1        0.0145
     11 C         142.7434  138.4404  165.3367 C.ar    1  UNL1       -0.0003
     12 C         141.7150  138.3379  164.2495 C.ar    1  UNL1        0.0092
     13 C         141.9009  139.0943  162.9676 C.ar    1  UNL1        0.1240
     14 N         143.1153  139.9532  162.7729 N.ar    1  UNL1       -0.2356
     15 N         140.8726  138.9919  161.8804 N.pl3   1  UNL1       -0.3184
     16 C         139.6584  138.1331  162.0751 C.3     1  UNL1        0.0885
     17 C         139.4724  137.3767  163.3570 C.3     1  UNL1        0.0260
     18 C         140.5007  137.4791  164.4442 C.3     1  UNL1        0.0309
     19 H         140.9947  139.4884  161.0390 H       1  UNL1        0.1482
     20 C         139.4168  143.1301  164.4963 C.3     1  UNL1        0.0439
     21 C         140.0370  140.6015  167.4915 C.ar    1  UNL1        0.0821
     22 C         139.0435  139.5263  167.1651 C.ar    1  UNL1        0.0191
     23 C         138.1744  139.6522  165.9491 C.ar    1  UNL1        0.0012
     24 C         138.2988  140.8535  165.0595 C.ar    1  UNL1       -0.0041
     25 C         139.2924  141.9288  165.3859 C.ar    1  UNL1       -0.0193
     26 C         140.1615  141.8028  166.6019 C.ar    1  UNL1        0.0149
     27 C         139.7373  142.3195  170.2499 C.3     1  UNL1        0.0522
     28 C         140.7684  141.2652  169.9753 C.ar    1  UNL1        0.0624
     29 C         141.8429  140.8155  170.9205 C.ar    1  UNL1        0.0372
     30 C         142.6446  139.7479  170.2369 C.ar    1  UNL1        0.1217
     31 N         142.0657  139.5378  168.8691 N.ar    1  UNL1       -0.1638
     32 N         140.9062  140.4756  168.7075 N.ar    1  UNL1       -0.2337
     33 C         138.5121  143.2814  163.3094 C.3     1  UNL1        0.0474
     34 C         138.9719  142.8330  161.9538 C.2     1  UNL1        0.0507
     35 O         138.1787  143.1977  160.7341 O.co2   1  UNL1       -0.5492
     36 O         140.2251  142.0199  161.8180 O.co2   1  UNL1       -0.5492
@<TRIPOS>UNITY_ATOM_ATTR
35 1
charge -1
@<TRIPOS>BOND
     1    27    28    1
     2    28    29   ar
     3    29    30   ar
     4    30    31   ar
     5    31    32   ar
     6    32    21    1
     7    21    22   ar
     8    22    23   ar
     9    23    24   ar
    10    24    25   ar
    11    25    20    1
    12    20    33    1
    13    33    34    1
    14    34    35   ar
    15    34    36   ar
    16    20     1    1
    17     1     2    1
    18     2     3    1
    19     3     4    1
    20     4     5    1
    21     5     7    1
    22     7     8    1
    23     8     9    1
    24     9    10   ar
    25    10    11   ar
    26    11    12   ar
    27    12    13   ar
    28    13    14   ar
    29    13    15    1
    30    15    16    1
    31    16    17    1
    32    17    18    1
    33     5     6    1
    34    25    26   ar
    35    32    28   ar
    36    26    21   ar
    37     6     2    1
    38    14     9   ar
    39    18    12    1
    40    15    19    1
@<TRIPOS>MOLECULE
*****
 36 40 0 0 0
SMALL
GASTEIGER

@<TRIPOS>ATOM
      1 C         138.4206  143.7888  163.0956 C.3     1  UNL1        0.0768
      2 N         138.2510  142.5882  162.2126 N.3     1  UNL1       -0.2724
      3 C         138.4308  142.5562  160.7237 C.3     1  UNL1        0.0721
      4 C         138.1628  141.1570  160.2543 C.3     1  UNL1        0.0187
      5 C         137.8173  140.3242  161.4531 C.3     1  UNL1        0.0178
      6 C         137.8718  141.2087  162.6633 C.3     1  UNL1        0.0721
      7 C         137.4770  138.8634  161.4433 C.3     1  UNL1        0.0077
      8 C         138.5667  137.8387  161.5551 C.3     1  UNL1        0.0459
      9 C         139.6599  138.0138  162.5673 C.ar    1  UNL1        0.0603
     10 C         139.4076  137.6829  164.0084 C.ar    1  UNL1        0.0145
     11 C         140.5007  137.8579  165.0206 C.ar    1  UNL1       -0.0003
     12 C         141.8461  138.3638  164.5916 C.ar    1  UNL1        0.0092
     13 C         142.0984  138.6947  163.1505 C.ar    1  UNL1        0.1240
     14 N         141.0052  138.5196  162.1383 N.ar    1  UNL1       -0.2356
     15 N         143.4438  139.2005  162.7215 N.pl3   1  UNL1       -0.3184
     16 C         144.5368  139.3755  163.7337 C.3     1  UNL1        0.0885
     17 C         144.2845  139.0447  165.1748 C.3     1  UNL1        0.0260
     18 C         142.9392  138.5388  165.6038 C.3     1  UNL1        0.0309
     19 H         143.6093  139.4177  161.7757 H       1  UNL1        0.1482
     20 C         139.7947  144.3078  163.4001 C.3     1  UNL1        0.0439
     21 C         140.9690  142.7275  166.8459 C.ar    1  UNL1        0.0821
     22 C         142.3443  142.2503  166.4848 C.ar    1  UNL1        0.0191
     23 C         142.8699  142.4588  165.0955 C.ar    1  UNL1        0.0012
     24 C         142.0200  143.1446  164.0672 C.ar    1  UNL1       -0.0041
     25 C         140.6446  143.6219  164.4283 C.ar    1  UNL1       -0.0193
     26 C         140.1191  143.4134  165.8177 C.ar    1  UNL1        0.0149
     27 C         139.8994  139.9060  168.0888 C.3     1  UNL1        0.0522
     28 C         139.9518  141.2221  168.8065 C.ar    1  UNL1        0.0624
     29 C         139.5217  141.4724  170.2216 C.ar    1  UNL1        0.0372
     30 C         139.7475  142.9240  170.5249 C.ar    1  UNL1        0.1217
     31 N         140.3172  143.5708  169.2972 N.ar    1  UNL1       -0.1638
     32 N         140.4434  142.5190  168.2352 N.ar    1  UNL1       -0.2337
     33 C         140.3188  145.5126  162.6763 C.3     1  UNL1        0.0474
     34 C         140.6809  145.4163  161.2238 C.2     1  UNL1        0.0507
     35 O         139.7155  145.8885  160.1774 O.co2   1  UNL1       -0.5492
     36 O         142.0083  144.8479  160.8178 O.co2   1  UNL1       -0.5492
@<TRIPOS>UNITY_ATOM_ATTR
35 1
charge -1
@<TRIPOS>BOND
     1    27    28    1
     2    28    29   ar
     3    29    30   ar
     4    30    31   ar
     5    31    32   ar
     6    32    21    1
     7    21    22   ar
     8    22    23   ar
     9    23    24   ar
    10    24    25   ar
    11    25    20    1
    12    20    33    1
    13    33    34    1
    14    34    35   ar
    15    34    36   ar
    16    20     1    1
    17     1     2    1
    18     2     3    1
    19     3     4    1
    20     4     5    1
    21     5     7    1
    22     7     8    1
    23     8     9    1
    24     9    10   ar
    25    10    11   ar
    26    11    12   ar
    27    12    13   ar
    28    13    14   ar
    29    13    15    1
    30    15    16    1
    31    16    17    1
    32    17    18    1
    33     5     6    1
    34    25    26   ar
    35    32    28   ar
    36    26    21   ar
    37     6     2    1
    38    14     9   ar
    39    18    12    1
    40    15    19    1
@<TRIPOS>MOLECULE
*****
 36 40 0 0 0
SMALL
GASTEIGER

@<TRIPOS>ATOM
      1 C         138.4964  138.9235  164.4096 C.3     1  UNL1        0.0768
      2 N         138.2217  140.3426  164.0088 N.3     1  UNL1       -0.2724
      3 C         137.8369  140.8128  162.6373 C.3     1  UNL1        0.0721
      4 C         137.6610  142.3015  162.6901 C.3     1  UNL1        0.0187
      5 C         137.9370  142.7514  164.0941 C.3     1  UNL1        0.0178
      6 C         138.2836  141.5408  164.9092 C.3     1  UNL1        0.0721
      7 C         137.8770  144.1640  164.5952 C.3     1  UNL1        0.0077
      8 C         139.1375  144.8723  164.9942 C.3     1  UNL1        0.0459
      9 C         140.4452  144.4858  164.3691 C.ar    1  UNL1        0.0603
     10 C         140.9064  145.1654  163.1140 C.ar    1  UNL1        0.0145
     11 C         142.2140  144.7789  162.4888 C.ar    1  UNL1       -0.0003
     12 C         143.0604  143.7127  163.1189 C.ar    1  UNL1        0.0092
     13 C         142.5992  143.0330  164.3740 C.ar    1  UNL1        0.1240
     14 N         141.2915  143.4196  164.9991 N.ar    1  UNL1       -0.2356
     15 N         143.4455  141.9669  165.0040 N.pl3   1  UNL1       -0.3184
     16 C         144.7531  141.5804  164.3789 C.3     1  UNL1        0.0885
     17 C         145.2143  142.2600  163.1237 C.3     1  UNL1        0.0260
     18 C         144.3680  143.3262  162.4937 C.3     1  UNL1        0.0309
     19 H         143.1428  141.5208  165.8278 H       1  UNL1        0.1482
     20 C         139.8573  138.3322  164.1900 C.3     1  UNL1        0.0439
     21 C         141.7379  139.5139  167.4788 C.ar    1  UNL1        0.0821
     22 C         143.1371  139.0613  167.1835 C.ar    1  UNL1        0.0191
     23 C         143.4431  138.3657  165.8903 C.ar    1  UNL1        0.0012
     24 C         142.3499  138.1226  164.8924 C.ar    1  UNL1       -0.0041
     25 C         140.9506  138.5752  165.1878 C.ar    1  UNL1       -0.0193
     26 C         140.6447  139.2708  166.4810 C.ar    1  UNL1        0.0149
     27 C         143.0442  142.3243  168.5011 C.3     1  UNL1        0.0522
     28 C         142.0323  141.5013  169.2419 C.ar    1  UNL1        0.0624
     29 C         141.4432  141.8256  170.5827 C.ar    1  UNL1        0.0372
     30 C         140.4787  140.7343  170.9415 C.ar    1  UNL1        0.1217
     31 N         140.4717  139.7355  169.8225 N.ar    1  UNL1       -0.1638
     32 N         141.4319  140.2095  168.7720 N.ar    1  UNL1       -0.2337
     33 C         140.1250  137.4977  162.9725 C.3     1  UNL1        0.0474
     34 C         140.2793  138.1541  161.6325 C.2     1  UNL1        0.0507
     35 O         139.1474  138.1258  160.6487 O.co2   1  UNL1       -0.5492
     36 O         141.5655  138.8387  161.2764 O.co2   1  UNL1       -0.5492
@<TRIPOS>UNITY_ATOM_ATTR
35 1
charge -1
@<TRIPOS>BOND
     1    27    28    1
     2    28    29   ar
     3    29    30   ar
     4    30    31   ar
     5    31    32   ar
     6    32    21    1
     7    21    22   ar
     8    22    23   ar
     9    23    24   ar
    10    24    25   ar
    11    25    20    1
    12    20    33    1
    13    33    34    1
    14    34    35   ar
    15    34    36   ar
    16    20     1    1
    17     1     2    1
    18     2     3    1
    19     3     4    1
    20     4     5    1
    21     5     7    1
    22     7     8    1
    23     8     9    1
    24     9    10   ar
    25    10    11   ar
    26    11    12   ar
    27    12    13   ar
    28    13    14   ar
    29    13    15    1
    30    15    16    1
    31    16    17    1
    32    17    18    1
    33     5     6    1
    34    25    26   ar
    35    32    28   ar
    36    26    21   ar
    37     6     2    1
    38    14     9   ar
    39    18    12    1
    40    15    19    1
@<TRIPOS>MOLECULE
*****
 36 40 0 0 0
SMALL
GASTEIGER

@<TRIPOS>ATOM
      1 C         142.0803  140.8404  168.6042 C.3     1  UNL1        0.0768
      2 N         142.7488  140.1043  167.4812 N.3     1  UNL1       -0.2724
      3 C         143.0829  138.6421  167.4608 C.3     1  UNL1        0.0721
      4 C         143.7412  138.3352  166.1483 C.3     1  UNL1        0.0187
      5 C         143.8139  139.6078  165.3575 C.3     1  UNL1        0.0178
      6 C         143.2005  140.7011  166.1813 C.3     1  UNL1        0.0721
      7 C         144.3974  139.7602  163.9842 C.3     1  UNL1        0.0077
      8 C         143.9043  138.8984  162.8599 C.3     1  UNL1        0.0459
      9 C         142.4335  138.7941  162.5843 C.ar    1  UNL1        0.0603
     10 C         141.6560  137.6179  163.0964 C.ar    1  UNL1        0.0145
     11 C         140.1853  137.5136  162.8208 C.ar    1  UNL1       -0.0003
     12 C         139.4919  138.5855  162.0332 C.ar    1  UNL1        0.0092
     13 C         140.2693  139.7617  161.5211 C.ar    1  UNL1        0.1240
     14 N         141.7401  139.8660  161.7967 N.ar    1  UNL1       -0.2356
     15 N         139.5760  140.8335  160.7335 N.pl3   1  UNL1       -0.3184
     16 C         138.1053  140.7292  160.4579 C.3     1  UNL1        0.0885
     17 C         137.3278  139.5530  160.9700 C.3     1  UNL1        0.0260
     18 C         138.0211  138.4812  161.7576 C.3     1  UNL1        0.0309
     19 H         140.0863  141.6055  160.3974 H       1  UNL1        0.1482
     20 C         140.5860  140.9679  168.6329 C.3     1  UNL1        0.0439
     21 C         138.9728  141.7597  165.0945 C.ar    1  UNL1        0.0821
     22 C         138.2139  140.4915  164.8387 C.ar    1  UNL1        0.0191
     23 C         138.2456  139.3820  165.8476 C.ar    1  UNL1        0.0012
     24 C         139.0363  139.5408  167.1123 C.ar    1  UNL1       -0.0041
     25 C         139.7953  140.8091  167.3681 C.ar    1  UNL1       -0.0193
     26 C         139.7635  141.9185  166.3592 C.ar    1  UNL1        0.0149
     27 C         141.5343  142.9210  163.4391 C.3     1  UNL1        0.0522
     28 C         140.1184  143.4030  163.3247 C.ar    1  UNL1        0.0624
     29 C         139.6314  144.5035  162.4293 C.ar    1  UNL1        0.0372
     30 C         138.1530  144.6499  162.6367 C.ar    1  UNL1        0.1217
     31 N         137.7264  143.6399  163.6604 N.ar    1  UNL1       -0.1638
     32 N         138.9411  142.8693  164.0856 N.ar    1  UNL1       -0.2337
     33 C         139.8823  141.2541  169.9264 C.3     1  UNL1        0.0474
     34 C         140.3358  142.3932  170.7907 C.2     1  UNL1        0.0507
     35 O         141.3755  142.1651  171.8475 O.co2   1  UNL1       -0.5492
     36 O         139.7494  143.7603  170.5982 O.co2   1  UNL1       -0.5492
@<TRIPOS>UNITY_ATOM_ATTR
35 1
charge -1
@<TRIPOS>BOND
     1    27    28    1
     2    28    29   ar
     3    29    30   ar
     4    30    31   ar
     5    31    32   ar
     6    32    21    1
     7    21    22   ar
     8    22    23   ar
     9    23    24   ar
    10    24    25   ar
    11    25    20    1
    12    20    33    1
    13    33    34    1
    14    34    35   ar
    15    34    36   ar
    16    20     1    1
    17     1     2    1
    18     2     3    1
    19     3     4    1
    20     4     5    1
    21     5     7    1
    22     7     8    1
    23     8     9    1
    24     9    10   ar
    25    10    11   ar
    26    11    12   ar
    27    12    13   ar
    28    13    14   ar
    29    13    15    1
    30    15    16    1
    31    16    17    1
    32    17    18    1
    33     5     6    1
    34    25    26   ar
    35    32    28   ar
    36    26    21   ar
    37     6     2    1
    38    14     9   ar
    39    18    12    1
    40    15    19    1
@<TRIPOS>MOLECULE
*****
 36 40 0 0 0
SMALL
GASTEIGER

@<TRIPOS>ATOM
      1 C         139.9415  138.3509  160.4749 C.3     1  UNL1        0.0768
      2 N         140.0386  138.0073  161.9318 N.3     1  UNL1       -0.2724
      3 C         141.2892  137.6232  162.6657 C.3     1  UNL1        0.0721
      4 C         140.9256  137.3660  164.0981 C.3     1  UNL1        0.0187
      5 C         139.4503  137.5912  164.2495 C.3     1  UNL1        0.0178
      6 C         138.9022  137.9875  162.9106 C.3     1  UNL1        0.0721
      7 C         138.6618  137.4456  165.5171 C.3     1  UNL1        0.0077
      8 C         138.1908  138.6656  166.2517 C.3     1  UNL1        0.0459
      9 C         138.7165  140.0186  165.8732 C.ar    1  UNL1        0.0603
     10 C         139.9985  140.5189  166.4700 C.ar    1  UNL1        0.0145
     11 C         140.5243  141.8718  166.0915 C.ar    1  UNL1       -0.0003
     12 C         139.7680  142.7244  165.1162 C.ar    1  UNL1        0.0092
     13 C         138.4860  142.2241  164.5194 C.ar    1  UNL1        0.1240
     14 N         137.9603  140.8711  164.8979 N.ar    1  UNL1       -0.2356
     15 N         137.7298  143.0766  163.5441 N.pl3   1  UNL1       -0.3184
     16 C         138.2555  144.4295  163.1657 C.3     1  UNL1        0.0885
     17 C         139.5375  144.9298  163.7625 C.3     1  UNL1        0.0260
     18 C         140.2937  144.0773  164.7378 C.3     1  UNL1        0.0309
     19 H         136.8884  142.7482  163.1524 H       1  UNL1        0.1482
     20 C         140.1140  139.7719  160.0264 C.3     1  UNL1        0.0439
     21 C         143.0987  142.0557  161.3013 C.ar    1  UNL1        0.0821
     22 C         144.1536  141.7379  160.2835 C.ar    1  UNL1        0.0191
     23 C         143.8620  140.7647  159.1799 C.ar    1  UNL1        0.0012
     24 C         142.5155  140.1094  159.0942 C.ar    1  UNL1       -0.0041
     25 C         141.4606  140.4272  160.1121 C.ar    1  UNL1       -0.0193
     26 C         141.7522  141.4004  161.2156 C.ar    1  UNL1        0.0149
     27 C         143.8071  141.2928  164.3942 C.3     1  UNL1        0.0522
     28 C         143.7158  142.6782  163.8265 C.ar    1  UNL1        0.0624
     29 C         143.9342  143.9562  164.5808 C.ar    1  UNL1        0.0372
     30 C         143.7436  145.0968  163.6254 C.ar    1  UNL1        0.1217
     31 N         143.4074  144.5236  162.2806 N.ar    1  UNL1       -0.1638
     32 N         143.3903  143.0289  162.4049 N.ar    1  UNL1       -0.2337
     33 C         138.9399  140.5375  159.4921 C.3     1  UNL1        0.0474
     34 C         138.1487  141.4290  160.4027 C.2     1  UNL1        0.0507
     35 O         137.3148  140.8325  161.4976 O.co2   1  UNL1       -0.5492
     36 O         138.1913  142.9170  160.2183 O.co2   1  UNL1       -0.5492
@<TRIPOS>UNITY_ATOM_ATTR
35 1
charge -1
@<TRIPOS>BOND
     1    27    28    1
     2    28    29   ar
     3    29    30   ar
     4    30    31   ar
     5    31    32   ar
     6    32    21    1
     7    21    22   ar
     8    22    23   ar
     9    23    24   ar
    10    24    25   ar
    11    25    20    1
    12    20    33    1
    13    33    34    1
    14    34    35   ar
    15    34    36   ar
    16    20     1    1
    17     1     2    1
    18     2     3    1
    19     3     4    1
    20     4     5    1
    21     5     7    1
    22     7     8    1
    23     8     9    1
    24     9    10   ar
    25    10    11   ar
    26    11    12   ar
    27    12    13   ar
    28    13    14   ar
    29    13    15    1
    30    15    16    1
    31    16    17    1
    32    17    18    1
    33     5     6    1
    34    25    26   ar
    35    32    28   ar
    36    26    21   ar
    37     6     2    1
    38    14     9   ar
    39    18    12    1
    40    15    19    1
@<TRIPOS>MOLECULE
*****
 36 40 0 0 0
SMALL
GASTEIGER

@<TRIPOS>ATOM
      1 C         141.3624  137.5239  163.9607 C.3     1  UNL1        0.0768
      2 N         142.5725  138.2833  163.5037 N.3     1  UNL1       -0.2724
      3 C         143.1442  138.2793  162.1169 C.3     1  UNL1        0.0721
      4 C         144.3484  139.1736  162.1093 C.3     1  UNL1        0.0187
      5 C         144.5210  139.7304  163.4914 C.3     1  UNL1        0.0178
      6 C         143.4234  139.1802  164.3532 C.3     1  UNL1        0.0721
      7 C         145.6014  140.6721  163.9340 C.3     1  UNL1        0.0077
      8 C         145.5729  142.1059  163.4944 C.3     1  UNL1        0.0459
      9 C         144.2733  142.8543  163.4601 C.ar    1  UNL1        0.0603
     10 C         143.4630  143.0077  164.7131 C.ar    1  UNL1        0.0145
     11 C         142.1635  143.7560  164.6789 C.ar    1  UNL1       -0.0003
     12 C         141.6742  144.3509  163.3917 C.ar    1  UNL1        0.0092
     13 C         142.4845  144.1975  162.1388 C.ar    1  UNL1        0.1240
     14 N         143.7841  143.4491  162.1730 N.ar    1  UNL1       -0.2356
     15 N         141.9953  144.7923  160.8516 N.pl3   1  UNL1       -0.3184
     16 C         140.6958  145.5406  160.8174 C.3     1  UNL1        0.0885
     17 C         139.8855  145.6941  162.0703 C.3     1  UNL1        0.0260
     18 C         140.3747  145.0993  163.3575 C.3     1  UNL1        0.0309
     19 H         142.5271  144.6916  160.0293 H       1  UNL1        0.1482
     20 C         140.0304  138.2096  164.0350 C.3     1  UNL1        0.0439
     21 C         140.1216  140.6973  167.1257 C.ar    1  UNL1        0.0821
     22 C         139.5549  141.9401  166.5062 C.ar    1  UNL1        0.0191
     23 C         139.1467  141.9396  165.0628 C.ar    1  UNL1        0.0012
     24 C         139.3052  140.6961  164.2391 C.ar    1  UNL1       -0.0041
     25 C         139.8719  139.4531  164.8587 C.ar    1  UNL1       -0.0193
     26 C         140.2801  139.4538  166.3020 C.ar    1  UNL1        0.0149
     27 C         142.7346  142.1972  168.3796 C.3     1  UNL1        0.0522
     28 C         141.7309  141.3873  169.1454 C.ar    1  UNL1        0.0624
     29 C         141.7520  141.1245  170.6221 C.ar    1  UNL1        0.0372
     30 C         140.5640  140.2727  170.9584 C.ar    1  UNL1        0.1217
     31 N         139.8087  140.0090  169.6896 N.ar    1  UNL1       -0.1638
     32 N         140.5298  140.6978  168.5691 N.ar    1  UNL1       -0.2337
     33 C         138.8568  137.6518  163.2854 C.3     1  UNL1        0.0474
     34 C         138.6159  138.0558  161.8611 C.2     1  UNL1        0.0507
     35 O         139.6240  137.7150  160.8040 O.co2   1  UNL1       -0.5492
     36 O         137.3667  138.8007  161.4938 O.co2   1  UNL1       -0.5492
@<TRIPOS>UNITY_ATOM_ATTR
35 1
charge -1
@<TRIPOS>BOND
     1    27    28    1
     2    28    29   ar
     3    29    30   ar
     4    30    31   ar
     5    31    32   ar
     6    32    21    1
     7    21    22   ar
     8    22    23   ar
     9    23    24   ar
    10    24    25   ar
    11    25    20    1
    12    20    33    1
    13    33    34    1
    14    34    35   ar
    15    34    36   ar
    16    20     1    1
    17     1     2    1
    18     2     3    1
    19     3     4    1
    20     4     5    1
    21     5     7    1
    22     7     8    1
    23     8     9    1
    24     9    10   ar
    25    10    11   ar
    26    11    12   ar
    27    12    13   ar
    28    13    14   ar
    29    13    15    1
    30    15    16    1
    31    16    17    1
    32    17    18    1
    33     5     6    1
    34    25    26   ar
    35    32    28   ar
    36    26    21   ar
    37     6     2    1
    38    14     9   ar
    39    18    12    1
    40    15    19    1
@<TRIPOS>MOLECULE
*****
 36 40 0 0 0
SMALL
GASTEIGER

@<TRIPOS>ATOM
      1 C         143.4794  143.7363  164.6592 C.3     1  UNL1        0.0768
      2 N         142.1017  144.1443  164.2286 N.3     1  UNL1       -0.2724
      3 C         141.7718  145.1497  163.1653 C.3     1  UNL1        0.0721
      4 C         140.2783  145.2453  163.0651 C.3     1  UNL1        0.0187
      5 C         139.6850  144.2991  164.0664 C.3     1  UNL1        0.0178
      6 C         140.8120  143.6186  164.7855 C.3     1  UNL1        0.0721
      7 C         138.2218  144.0730  164.3066 C.3     1  UNL1        0.0077
      8 C         137.5798  142.7893  163.8707 C.3     1  UNL1        0.0459
      9 C         138.2970  141.4868  164.0693 C.ar    1  UNL1        0.0603
     10 C         138.1756  140.7550  165.3730 C.ar    1  UNL1        0.0145
     11 C         138.8927  139.4526  165.5716 C.ar    1  UNL1       -0.0003
     12 C         139.7312  138.8820  164.4664 C.ar    1  UNL1        0.0092
     13 C         139.8527  139.6138  163.1627 C.ar    1  UNL1        0.1240
     14 N         139.1355  140.9163  162.9642 N.ar    1  UNL1       -0.2356
     15 N         140.6912  139.0433  162.0576 N.pl3   1  UNL1       -0.3184
     16 C         141.4083  137.7409  162.2562 C.3     1  UNL1        0.0885
     17 C         141.2869  137.0090  163.5599 C.3     1  UNL1        0.0260
     18 C         140.4483  137.5796  164.6650 C.3     1  UNL1        0.0309
     19 H         140.7709  139.5236  161.2019 H       1  UNL1        0.1482
     20 C         143.9922  142.3651  164.3322 C.3     1  UNL1        0.0439
     21 C         142.6696  140.2964  167.4500 C.ar    1  UNL1        0.0821
     22 C         143.0393  138.9012  167.0420 C.ar    1  UNL1        0.0191
     23 C         143.7266  138.6605  165.7306 C.ar    1  UNL1        0.0012
     24 C         144.0442  139.8152  164.8274 C.ar    1  UNL1       -0.0041
     25 C         143.6745  141.2105  165.2355 C.ar    1  UNL1       -0.0193
     26 C         142.9873  141.4510  166.5468 C.ar    1  UNL1        0.0149
     27 C         143.7255  142.2536  169.8384 C.3     1  UNL1        0.0522
     28 C         142.4676  141.4366  169.8592 C.ar    1  UNL1        0.0624
     29 C         141.4742  141.3759  170.9815 C.ar    1  UNL1        0.0372
     30 C         140.3749  140.4387  170.5773 C.ar    1  UNL1        0.1217
     31 N         140.6890  139.9203  169.2052 N.ar    1  UNL1       -0.1638
     32 N         141.9823  140.5370  168.7614 N.ar    1  UNL1       -0.2337
     33 C         144.8226  142.1486  163.1019 C.3     1  UNL1        0.0474
     34 C         144.1581  141.9972  161.7656 C.2     1  UNL1        0.0507
     35 O         142.8252  141.3168  161.6636 O.co2   1  UNL1       -0.5492
     36 O         144.8265  142.5263  160.5314 O.co2   1  UNL1       -0.5492
@<TRIPOS>UNITY_ATOM_ATTR
35 1
charge -1
@<TRIPOS>BOND
     1    27    28    1
     2    28    29   ar
     3    29    30   ar
     4    30    31   ar
     5    31    32   ar
     6    32    21    1
     7    21    22   ar
     8    22    23   ar
     9    23    24   ar
    10    24    25   ar
    11    25    20    1
    12    20    33    1
    13    33    34    1
    14    34    35   ar
    15    34    36   ar
    16    20     1    1
    17     1     2    1
    18     2     3    1
    19     3     4    1
    20     4     5    1
    21     5     7    1
    22     7     8    1
    23     8     9    1
    24     9    10   ar
    25    10    11   ar
    26    11    12   ar
    27    12    13   ar
    28    13    14   ar
    29    13    15    1
    30    15    16    1
    31    16    17    1
    32    17    18    1
    33     5     6    1
    34    25    26   ar
    35    32    28   ar
    36    26    21   ar
    37     6     2    1
    38    14     9   ar
    39    18    12    1
    40    15    19    1
@<TRIPOS>MOLECULE
*****
 36 40 0 0 0
SMALL
GASTEIGER

@<TRIPOS>ATOM
      1 C         138.1340  139.0528  163.2249 C.3     1  UNL1        0.0768
      2 N         138.0064  140.5412  163.0902 N.3     1  UNL1       -0.2724
      3 C         138.0603  141.3183  161.8082 C.3     1  UNL1        0.0721
      4 C         137.8897  142.7713  162.1394 C.3     1  UNL1        0.0187
      5 C         137.7304  142.8923  163.6260 C.3     1  UNL1        0.0178
      6 C         137.8025  141.5140  164.2136 C.3     1  UNL1        0.0721
      7 C         137.5336  144.1675  164.3908 C.3     1  UNL1        0.0077
      8 C         138.6542  144.7282  165.2152 C.3     1  UNL1        0.0459
      9 C         139.9957  144.0569  165.2129 C.ar    1  UNL1        0.0603
     10 C         140.3371  143.0597  166.2802 C.ar    1  UNL1        0.0145
     11 C         141.6785  142.3884  166.2779 C.ar    1  UNL1       -0.0003
     12 C         142.6785  142.7143  165.2084 C.ar    1  UNL1        0.0092
     13 C         142.3371  143.7115  164.1411 C.ar    1  UNL1        0.1240
     14 N         140.9956  144.3828  164.1434 N.ar    1  UNL1       -0.2356
     15 N         143.3370  144.0374  163.0716 N.pl3   1  UNL1       -0.3184
     16 C         144.6784  143.3661  163.0694 C.3     1  UNL1        0.0885
     17 C         145.0198  142.3689  164.1367 C.3     1  UNL1        0.0260
     18 C         144.0199  142.0430  165.2062 C.3     1  UNL1        0.0309
     19 H         143.1129  144.6919  162.3712 H       1  UNL1        0.1482
     20 C         139.1137  138.4692  164.1994 C.3     1  UNL1        0.0439
     21 C         142.5641  139.3862  162.4665 C.ar    1  UNL1        0.0821
     22 C         143.5322  139.0254  163.5539 C.ar    1  UNL1        0.0191
     23 C         143.0275  138.4792  164.8566 C.ar    1  UNL1        0.0012
     24 C         141.5546  138.2938  165.0718 C.ar    1  UNL1       -0.0041
     25 C         140.5865  138.6546  163.9843 C.ar    1  UNL1       -0.0193
     26 C         141.0913  139.2008  162.6817 C.ar    1  UNL1        0.0149
     27 C         142.9603  137.6967  159.7028 C.3     1  UNL1        0.0522
     28 C         143.2509  139.1558  159.8935 C.ar    1  UNL1        0.0624
     29 C         143.7747  140.0946  158.8474 C.ar    1  UNL1        0.0372
     30 C         143.9163  141.4514  159.4712 C.ar    1  UNL1        0.1217
     31 N         143.4801  141.3511  160.9029 N.ar    1  UNL1       -0.1638
     32 N         143.0688  139.9324  161.1639 N.ar    1  UNL1       -0.2337
     33 C         138.6204  137.7001  165.3892 C.3     1  UNL1        0.0474
     34 C         138.1482  138.4306  166.6112 C.2     1  UNL1        0.0507
     35 O         138.8442  139.6843  167.0513 O.co2   1  UNL1       -0.5492
     36 O         136.9800  137.9073  167.3933 O.co2   1  UNL1       -0.5492
@<TRIPOS>UNITY_ATOM_ATTR
35 1
charge -1
@<TRIPOS>BOND
     1    27    28    1
     2    28    29   ar
     3    29    30   ar
     4    30    31   ar
     5    31    32   ar
     6    32    21    1
     7    21    22   ar
     8    22    23   ar
     9    23    24   ar
    10    24    25   ar
    11    25    20    1
    12    20    33    1
    13    33    34    1
    14    34    35   ar
    15    34    36   ar
    16    20     1    1
    17     1     2    1
    18     2     3    1
    19     3     4    1
    20     4     5    1
    21     5     7    1
    22     7     8    1
    23     8     9    1
    24     9    10   ar
    25    10    11   ar
    26    11    12   ar
    27    12    13   ar
    28    13    14   ar
    29    13    15    1
    30    15    16    1
    31    16    17    1
    32    17    18    1
    33     5     6    1
    34    25    26   ar
    35    32    28   ar
    36    26    21   ar
    37     6     2    1
    38    14     9   ar
    39    18    12    1
    40    15    19    1
