@<TRIPOS>MOLECULE
*****
 33 36 0 0 0
SMALL
GASTEIGER

@<TRIPOS>ATOM
      1 C         140.2791  139.4427  164.8389 C.ar    1  UNL1        0.0522
      2 C         140.9754  140.0859  163.6764 C.ar    1  UNL1        0.0167
      3 C         140.7693  139.5519  162.2898 C.ar    1  UNL1        0.0505
      4 C         139.8670  138.3748  162.0659 C.ar    1  UNL1        0.0170
      5 C         139.1707  137.7316  163.2285 C.ar    1  UNL1        0.0307
      6 C         139.3769  138.2656  164.6150 C.ar    1  UNL1        0.1401
      7 F         138.6806  137.6224  165.7776 F       1  UNL1       -0.2044
      8 C         139.2106  140.6794  165.8625 C.3     1  UNL1        0.0601
      9 C         140.4851  139.9767  166.2255 C.3     1  UNL1        0.2163
     10 C         140.2485  140.7547  167.4860 C.3     1  UNL1        0.1614
     11 N         141.2148  140.6445  168.6279 N.ar    1  UNL1       -0.2929
     12 C         141.2437  141.2857  169.9837 C.ar    1  UNL1        0.1503
     13 C         142.4645  140.7938  170.7031 C.ar    1  UNL1        0.1285
     14 N         143.1901  139.8486  169.7920 N.ar    1  UNL1       -0.2180
     15 C         142.4177  139.7564  168.5094 C.ar    1  UNL1        0.2279
     16 C         142.6544  138.9783  167.2490 C.2     1  UNL1        0.3476
     17 N         143.8573  138.0902  167.1305 N.pl3   1  UNL1       -0.2439
     18 N         141.6880  139.0885  166.1071 N.2     1  UNL1       -0.0653
     19 H         144.4916  138.0178  167.8800 H       1  UNL1        0.2885
     20 H         144.0126  137.5795  166.3032 H       1  UNL1        0.2885
     21 C         140.2298  142.2496  170.5249 C.1     1  UNL1        0.1196
     22 N         139.2159  143.2135  171.0662 N.1     1  UNL1       -0.1893
     23 N         141.4656  140.1951  161.1274 N.am    1  UNL1       -0.2791
     24 C         142.8811  139.8216  160.8006 C.2     1  UNL1        0.2672
     25 O         143.6004  138.8048  161.6365 O.2     1  UNL1       -0.2682
     26 H         140.9934  140.8625  160.5788 H       1  UNL1        0.1552
     27 C         143.5773  140.4649  159.6381 C.ar    1  UNL1        0.1348
     28 C         144.0435  141.8871  159.7366 C.ar    1  UNL1        0.0246
     29 C         144.7397  142.5304  158.5740 C.ar    1  UNL1        0.0147
     30 C         144.9697  141.7514  157.3130 C.ar    1  UNL1        0.0768
     31 CL        145.6660  142.3946  156.1505 Cl      1  UNL1       -0.0806
     32 C         144.5035  140.3290  157.2146 C.ar    1  UNL1        0.1103
     33 N         143.8073  139.6858  158.3771 N.ar    1  UNL1       -0.2384
@<TRIPOS>BOND
     1     9     8    1
     2     9     1    1
     3     1     2   ar
     4     2     3   ar
     5     3    23    1
     6    23    24   am
     7    24    25    2
     8    24    27    1
     9    27    28   ar
    10    28    29   ar
    11    29    30   ar
    12    30    31    1
    13    30    32   ar
    14    32    33   ar
    15     3     4   ar
    16     4     5   ar
    17     5     6   ar
    18     6     7    1
    19     9    10    1
    20    10    11    1
    21    11    12   ar
    22    12    21    1
    23    21    22    3
    24    12    13   ar
    25    13    14   ar
    26    14    15   ar
    27    15    16    1
    28    16    17    1
    29    16    18    2
    30    18     9    1
    31     6     1   ar
    32    15    11   ar
    33    33    27   ar
    34    23    26    1
    35    17    19    1
    36    17    20    1
@<TRIPOS>MOLECULE
*****
 33 36 0 0 0
SMALL
GASTEIGER

@<TRIPOS>ATOM
      1 C         139.3840  142.2369  164.3635 C.ar    1  UNL1        0.0522
      2 C         140.0601  141.4700  163.2659 C.ar    1  UNL1        0.0167
      3 C         139.5690  141.5915  161.8537 C.ar    1  UNL1        0.0505
      4 C         138.4020  142.4798  161.5393 C.ar    1  UNL1        0.0170
      5 C         137.7259  143.2467  162.6370 C.ar    1  UNL1        0.0307
      6 C         138.2170  143.1251  164.0491 C.ar    1  UNL1        0.1401
      7 F         137.5410  143.8920  165.1468 F       1  UNL1       -0.2044
      8 C         140.5803  143.3731  165.3620 C.3     1  UNL1        0.0601
      9 C         139.8751  142.1154  165.7757 C.3     1  UNL1        0.2163
     10 C         140.6110  142.4308  167.0442 C.3     1  UNL1        0.1614
     11 N         140.4712  141.5308  168.2360 N.ar    1  UNL1       -0.2929
     12 C         141.0692  141.5853  169.6105 C.ar    1  UNL1        0.1503
     13 C         140.5630  140.4036  170.3834 C.ar    1  UNL1        0.1285
     14 N         139.6522  139.6187  169.4865 N.ar    1  UNL1       -0.2180
     15 C         139.5955  140.3154  168.1593 C.ar    1  UNL1        0.2279
     16 C         138.8595  140.0000  166.8908 C.2     1  UNL1        0.3476
     17 N         137.9838  138.7846  166.8142 N.pl3   1  UNL1       -0.2439
     18 N         138.9994  140.9001  165.6991 N.2     1  UNL1       -0.0653
     19 H         137.8920  138.1939  167.5964 H       1  UNL1        0.2885
     20 H         137.5008  138.5777  165.9816 H       1  UNL1        0.2885
     21 C         142.0084  142.6369  170.1224 C.1     1  UNL1        0.1196
     22 N         142.9477  143.6885  170.6342 N.1     1  UNL1       -0.1893
     23 N         140.2451  140.8246  160.7561 N.am    1  UNL1       -0.2791
     24 C         139.6558  139.5337  160.2700 C.2     1  UNL1        0.2672
     25 O         138.3905  139.0096  160.8816 O.2     1  UNL1       -0.2682
     26 H         141.0756  141.1686  160.3546 H       1  UNL1        0.1552
     27 C         140.3319  138.7668  159.1723 C.ar    1  UNL1        0.1348
     28 C         141.8032  138.4855  159.2503 C.ar    1  UNL1        0.0246
     29 C         142.4793  137.7186  158.1526 C.ar    1  UNL1        0.0147
     30 C         141.6841  137.2332  156.9771 C.ar    1  UNL1        0.0768
     31 CL        142.3602  136.4663  155.8794 Cl      1  UNL1       -0.0806
     32 C         140.2128  137.5145  156.8992 C.ar    1  UNL1        0.1103
     33 N         139.5366  138.2813  157.9968 N.ar    1  UNL1       -0.2384
@<TRIPOS>BOND
     1     9     8    1
     2     9     1    1
     3     1     2   ar
     4     2     3   ar
     5     3    23    1
     6    23    24   am
     7    24    25    2
     8    24    27    1
     9    27    28   ar
    10    28    29   ar
    11    29    30   ar
    12    30    31    1
    13    30    32   ar
    14    32    33   ar
    15     3     4   ar
    16     4     5   ar
    17     5     6   ar
    18     6     7    1
    19     9    10    1
    20    10    11    1
    21    11    12   ar
    22    12    21    1
    23    21    22    3
    24    12    13   ar
    25    13    14   ar
    26    14    15   ar
    27    15    16    1
    28    16    17    1
    29    16    18    2
    30    18     9    1
    31     6     1   ar
    32    15    11   ar
    33    33    27   ar
    34    23    26    1
    35    17    19    1
    36    17    20    1
@<TRIPOS>MOLECULE
*****
 33 36 0 0 0
SMALL
GASTEIGER

@<TRIPOS>ATOM
      1 C         139.7944  139.8235  164.5691 C.ar    1  UNL1        0.0522
      2 C         140.0791  140.7494  163.4240 C.ar    1  UNL1        0.0167
      3 C         139.7666  140.3239  162.0199 C.ar    1  UNL1        0.0505
      4 C         139.1693  138.9725  161.7612 C.ar    1  UNL1        0.0170
      5 C         138.8846  138.0465  162.9064 C.ar    1  UNL1        0.0307
      6 C         139.1972  138.4721  164.3104 C.ar    1  UNL1        0.1401
      7 F         138.9125  137.5461  165.4557 F       1  UNL1       -0.2044
      8 C         138.8201  140.9888  165.7572 C.3     1  UNL1        0.0601
      9 C         140.1070  140.2489  165.9732 C.3     1  UNL1        0.2163
     10 C         139.9725  140.9314  167.3023 C.3     1  UNL1        0.1614
     11 N         141.0164  140.7262  168.3597 N.ar    1  UNL1       -0.2929
     12 C         141.1517  141.2625  169.7540 C.ar    1  UNL1        0.1503
     13 C         142.4136  140.7064  170.3441 C.ar    1  UNL1        0.1285
     14 N         143.0583  139.8264  169.3145 N.ar    1  UNL1       -0.2180
     15 C         142.1948  139.8386  168.0881 C.ar    1  UNL1        0.2279
     16 C         142.3292  139.1562  166.7591 C.2     1  UNL1        0.3476
     17 N         143.5075  138.2686  166.4875 N.pl3   1  UNL1       -0.2439
     18 N         141.2852  139.3614  165.7017 N.2     1  UNL1       -0.0653
     19 H         144.1926  138.1339  167.1815 H       1  UNL1        0.2885
     20 H         143.5957  137.8207  165.6152 H       1  UNL1        0.2885
     21 C         140.1933  142.1918  170.4380 C.1     1  UNL1        0.1196
     22 N         139.2349  143.1211  171.1221 N.1     1  UNL1       -0.1893
     23 N         140.0513  141.2499  160.8747 N.am    1  UNL1       -0.2791
     24 C         139.0742  142.3330  160.5251 C.2     1  UNL1        0.2672
     25 O         137.8124  142.4901  161.3207 O.2     1  UNL1       -0.2682
     26 H         140.8795  141.1467  160.3525 H       1  UNL1        0.1552
     27 C         139.3590  143.2589  159.3798 C.ar    1  UNL1        0.1348
     28 C         139.0346  142.8385  157.9770 C.ar    1  UNL1        0.0246
     29 C         139.3194  143.7645  156.8318 C.ar    1  UNL1        0.0147
     30 C         139.9285  145.1108  157.0894 C.ar    1  UNL1        0.0768
     31 CL        140.2132  146.0367  155.9442 Cl      1  UNL1       -0.0806
     32 C         140.2528  145.5311  158.4923 C.ar    1  UNL1        0.1103
     33 N         139.9681  144.6053  159.6375 N.ar    1  UNL1       -0.2384
@<TRIPOS>BOND
     1     9     8    1
     2     9     1    1
     3     1     2   ar
     4     2     3   ar
     5     3    23    1
     6    23    24   am
     7    24    25    2
     8    24    27    1
     9    27    28   ar
    10    28    29   ar
    11    29    30   ar
    12    30    31    1
    13    30    32   ar
    14    32    33   ar
    15     3     4   ar
    16     4     5   ar
    17     5     6   ar
    18     6     7    1
    19     9    10    1
    20    10    11    1
    21    11    12   ar
    22    12    21    1
    23    21    22    3
    24    12    13   ar
    25    13    14   ar
    26    14    15   ar
    27    15    16    1
    28    16    17    1
    29    16    18    2
    30    18     9    1
    31     6     1   ar
    32    15    11   ar
    33    33    27   ar
    34    23    26    1
    35    17    19    1
    36    17    20    1
@<TRIPOS>MOLECULE
*****
 33 36 0 0 0
SMALL
GASTEIGER

@<TRIPOS>ATOM
      1 C         142.5546  140.4696  164.5443 C.ar    1  UNL1        0.0522
      2 C         142.0147  141.2942  163.4136 C.ar    1  UNL1        0.0167
      3 C         142.5863  141.1425  162.0351 C.ar    1  UNL1        0.0505
      4 C         143.6978  140.1662  161.7874 C.ar    1  UNL1        0.0170
      5 C         144.2377  139.3416  162.9181 C.ar    1  UNL1        0.0307
      6 C         143.6660  139.4934  164.2966 C.ar    1  UNL1        0.1401
      7 F         144.2059  138.6688  165.4274 F       1  UNL1       -0.2044
      8 C         143.2409  141.4247  166.0726 C.3     1  UNL1        0.0601
      9 C         141.9830  140.6213  165.9229 C.3     1  UNL1        0.2163
     10 C         141.8483  141.0521  167.3534 C.3     1  UNL1        0.1614
     11 N         140.6542  140.6268  168.1554 N.ar    1  UNL1       -0.2929
     12 C         140.2520  140.8943  169.5755 C.ar    1  UNL1        0.1503
     13 C         138.9440  140.2036  169.8247 C.ar    1  UNL1        0.1285
     14 N         138.5378  139.5092  168.5586 N.ar    1  UNL1       -0.2180
     15 C         139.5948  139.7707  167.5270 C.ar    1  UNL1        0.2279
     16 C         139.7296  139.3401  166.0965 C.2     1  UNL1        0.3476
     17 N         138.6702  138.4840  165.4680 N.pl3   1  UNL1       -0.2439
     18 N         140.9236  139.7654  165.2944 N.2     1  UNL1       -0.0653
     19 H         137.8865  138.2049  165.9944 H       1  UNL1        0.2885
     20 H         138.7586  138.2014  164.5291 H       1  UNL1        0.2885
     21 C         141.0224  141.7093  170.5715 C.1     1  UNL1        0.1196
     22 N         141.7929  142.5244  171.5675 N.1     1  UNL1       -0.1893
     23 N         142.0464  141.9671  160.9044 N.am    1  UNL1       -0.2791
     24 C         142.5139  143.3800  160.7165 C.2     1  UNL1        0.2672
     25 O         143.5213  143.9682  161.6593 O.2     1  UNL1       -0.2682
     26 H         141.3852  141.5810  160.2856 H       1  UNL1        0.1552
     27 C         141.9739  144.2045  159.5857 C.ar    1  UNL1        0.1348
     28 C         140.6445  144.8856  159.7224 C.ar    1  UNL1        0.0246
     29 C         140.1046  145.7102  158.5916 C.ar    1  UNL1        0.0147
     30 C         140.8940  145.8536  157.3243 C.ar    1  UNL1        0.0768
     31 CL        140.3541  146.6782  156.1936 Cl      1  UNL1       -0.0806
     32 C         142.2235  145.1725  157.1877 C.ar    1  UNL1        0.1103
     33 N         142.7635  144.3479  158.3184 N.ar    1  UNL1       -0.2384
@<TRIPOS>BOND
     1     9     8    1
     2     9     1    1
     3     1     2   ar
     4     2     3   ar
     5     3    23    1
     6    23    24   am
     7    24    25    2
     8    24    27    1
     9    27    28   ar
    10    28    29   ar
    11    29    30   ar
    12    30    31    1
    13    30    32   ar
    14    32    33   ar
    15     3     4   ar
    16     4     5   ar
    17     5     6   ar
    18     6     7    1
    19     9    10    1
    20    10    11    1
    21    11    12   ar
    22    12    21    1
    23    21    22    3
    24    12    13   ar
    25    13    14   ar
    26    14    15   ar
    27    15    16    1
    28    16    17    1
    29    16    18    2
    30    18     9    1
    31     6     1   ar
    32    15    11   ar
    33    33    27   ar
    34    23    26    1
    35    17    19    1
    36    17    20    1
@<TRIPOS>MOLECULE
*****
 33 36 0 0 0
SMALL
GASTEIGER

@<TRIPOS>ATOM
      1 C         139.7179  142.4608  164.1034 C.ar    1  UNL1        0.0522
      2 C         140.6340  141.9652  163.0240 C.ar    1  UNL1        0.0167
      3 C         140.2546  142.1335  161.5825 C.ar    1  UNL1        0.0505
      4 C         138.9591  142.7975  161.2206 C.ar    1  UNL1        0.0170
      5 C         138.0431  143.2931  162.3001 C.ar    1  UNL1        0.0307
      6 C         138.4226  143.1247  163.7415 C.ar    1  UNL1        0.1401
      7 F         137.5065  143.6203  164.8210 F       1  UNL1       -0.2044
      8 C         140.8452  143.5526  165.2241 C.3     1  UNL1        0.0601
      9 C         140.0973  142.2924  165.5449 C.3     1  UNL1        0.2163
     10 C         140.7365  142.5618  166.8749 C.3     1  UNL1        0.1614
     11 N         140.4960  141.6295  168.0251 N.ar    1  UNL1       -0.2929
     12 C         140.9867  141.6368  169.4425 C.ar    1  UNL1        0.1503
     13 C         140.4103  140.4397  170.1387 C.ar    1  UNL1        0.1285
     14 N         139.5634  139.6925  169.1516 N.ar    1  UNL1       -0.2180
     15 C         139.6164  140.4278  167.8452 C.ar    1  UNL1        0.2279
     16 C         138.9773  140.1585  166.5152 C.2     1  UNL1        0.3476
     17 N         138.0977  138.9569  166.3354 N.pl3   1  UNL1       -0.2439
     18 N         139.2178  141.0909  165.3651 N.2     1  UNL1       -0.0653
     19 H         137.9398  138.3450  167.0903 H       1  UNL1        0.2885
     20 H         137.6782  138.7801  165.4624 H       1  UNL1        0.2885
     21 C         141.8944  142.6614  170.0561 C.1     1  UNL1        0.1196
     22 N         142.8020  143.6859  170.6696 N.1     1  UNL1       -0.1893
     23 N         141.1706  141.6379  160.5031 N.am    1  UNL1       -0.2791
     24 C         142.3027  142.4988  160.0262 C.2     1  UNL1        0.2672
     25 O         142.5187  143.8553  160.6288 O.2     1  UNL1       -0.2682
     26 H         141.0289  140.7476  160.1076 H       1  UNL1        0.1552
     27 C         143.2188  142.0031  158.9467 C.ar    1  UNL1        0.1348
     28 C         142.9117  140.7200  158.2332 C.ar    1  UNL1        0.0246
     29 C         143.8277  140.2243  157.1537 C.ar    1  UNL1        0.0147
     30 C         145.0508  141.0118  156.7879 C.ar    1  UNL1        0.0768
     31 CL        145.9669  140.5161  155.7085 Cl      1  UNL1       -0.0806
     32 C         145.3579  142.2950  157.5016 C.ar    1  UNL1        0.1103
     33 N         144.4419  142.7906  158.5810 N.ar    1  UNL1       -0.2384
@<TRIPOS>BOND
     1     9     8    1
     2     9     1    1
     3     1     2   ar
     4     2     3   ar
     5     3    23    1
     6    23    24   am
     7    24    25    2
     8    24    27    1
     9    27    28   ar
    10    28    29   ar
    11    29    30   ar
    12    30    31    1
    13    30    32   ar
    14    32    33   ar
    15     3     4   ar
    16     4     5   ar
    17     5     6   ar
    18     6     7    1
    19     9    10    1
    20    10    11    1
    21    11    12   ar
    22    12    21    1
    23    21    22    3
    24    12    13   ar
    25    13    14   ar
    26    14    15   ar
    27    15    16    1
    28    16    17    1
    29    16    18    2
    30    18     9    1
    31     6     1   ar
    32    15    11   ar
    33    33    27   ar
    34    23    26    1
    35    17    19    1
    36    17    20    1
@<TRIPOS>MOLECULE
*****
 33 36 0 0 0
SMALL
GASTEIGER

@<TRIPOS>ATOM
      1 C         141.4659  139.7598  164.6871 C.ar    1  UNL1        0.0522
      2 C         140.8774  140.5002  163.5229 C.ar    1  UNL1        0.0167
      3 C         140.9610  139.9170  162.1434 C.ar    1  UNL1        0.0505
      4 C         141.6332  138.5934  161.9283 C.ar    1  UNL1        0.0170
      5 C         142.2217  137.8530  163.0925 C.ar    1  UNL1        0.0307
      6 C         142.1380  138.4363  164.4720 C.ar    1  UNL1        0.1401
      7 F         142.7265  137.6959  165.6362 F       1  UNL1       -0.2044
      8 C         142.6702  140.9561  165.6022 C.3     1  UNL1        0.0601
      9 C         141.3823  140.3430  166.0666 C.3     1  UNL1        0.2163
     10 C         141.7461  141.1392  167.2848 C.3     1  UNL1        0.1614
     11 N         140.8509  141.1197  168.4883 N.ar    1  UNL1       -0.2929
     12 C         140.9482  141.7982  169.8225 C.ar    1  UNL1        0.1503
     13 C         139.7494  141.4020  170.6324 C.ar    1  UNL1        0.1285
     14 N         138.9113  140.4786  169.7987 N.ar    1  UNL1       -0.2180
     15 C         139.5921  140.3042  168.4735 C.ar    1  UNL1        0.2279
     16 C         139.2284  139.5081  167.2554 C.2     1  UNL1        0.3476
     17 N         137.9696  138.6925  167.2406 N.pl3   1  UNL1       -0.2439
     18 N         140.1236  139.5275  166.0519 N.2     1  UNL1       -0.0653
     19 H         137.3821  138.6797  168.0305 H       1  UNL1        0.2885
     20 H         137.7309  138.1700  166.4411 H       1  UNL1        0.2885
     21 C         142.0506  142.7124  170.2685 C.1     1  UNL1        0.1196
     22 N         143.1530  143.6266  170.7145 N.1     1  UNL1       -0.1893
     23 N         140.3725  140.6574  160.9792 N.am    1  UNL1       -0.2791
     24 C         139.1246  140.1490  160.3203 C.2     1  UNL1        0.2672
     25 O         138.4651  138.9002  160.8257 O.2     1  UNL1       -0.2682
     26 H         140.8054  141.4771  160.6475 H       1  UNL1        0.1552
     27 C         138.5361  140.8895  159.1561 C.ar    1  UNL1        0.1348
     28 C         139.0389  142.2588  158.8066 C.ar    1  UNL1        0.0246
     29 C         138.4504  142.9992  157.6423 C.ar    1  UNL1        0.0147
     30 C         137.3591  142.3704  156.8277 C.ar    1  UNL1        0.0768
     31 CL        136.7706  143.1109  155.6634 Cl      1  UNL1       -0.0806
     32 C         136.8564  141.0011  157.1773 C.ar    1  UNL1        0.1103
     33 N         137.4448  140.2606  158.3414 N.ar    1  UNL1       -0.2384
@<TRIPOS>BOND
     1     9     8    1
     2     9     1    1
     3     1     2   ar
     4     2     3   ar
     5     3    23    1
     6    23    24   am
     7    24    25    2
     8    24    27    1
     9    27    28   ar
    10    28    29   ar
    11    29    30   ar
    12    30    31    1
    13    30    32   ar
    14    32    33   ar
    15     3     4   ar
    16     4     5   ar
    17     5     6   ar
    18     6     7    1
    19     9    10    1
    20    10    11    1
    21    11    12   ar
    22    12    21    1
    23    21    22    3
    24    12    13   ar
    25    13    14   ar
    26    14    15   ar
    27    15    16    1
    28    16    17    1
    29    16    18    2
    30    18     9    1
    31     6     1   ar
    32    15    11   ar
    33    33    27   ar
    34    23    26    1
    35    17    19    1
    36    17    20    1
@<TRIPOS>MOLECULE
*****
 33 36 0 0 0
SMALL
GASTEIGER

@<TRIPOS>ATOM
      1 C         140.3208  143.6119  163.0828 C.ar    1  UNL1        0.0522
      2 C         140.9918  143.1919  161.8088 C.ar    1  UNL1        0.0167
      3 C         141.0944  144.1542  160.6626 C.ar    1  UNL1        0.0505
      4 C         140.5259  145.5364  160.7907 C.ar    1  UNL1        0.0170
      5 C         139.8548  145.9563  162.0648 C.ar    1  UNL1        0.0307
      6 C         139.7522  144.9940  163.2109 C.ar    1  UNL1        0.1401
      7 F         139.0811  145.4139  164.4850 F       1  UNL1       -0.2044
      8 C         141.4762  143.3733  164.6082 C.3     1  UNL1        0.0601
      9 C         140.2182  142.6496  164.2290 C.3     1  UNL1        0.2163
     10 C         140.5526  141.9387  165.5069 C.3     1  UNL1        0.1614
     11 N         139.6645  140.8384  166.0075 N.ar    1  UNL1       -0.2929
     12 C         139.7383  139.9642  167.2242 C.ar    1  UNL1        0.1503
     13 C         138.5615  139.0345  167.1989 C.ar    1  UNL1        0.1285
     14 N         137.7604  139.3340  165.9665 N.ar    1  UNL1       -0.2180
     15 C         138.4422  140.4489  165.2302 C.ar    1  UNL1        0.2279
     16 C         138.1078  141.1598  163.9524 C.2     1  UNL1        0.3476
     17 N         136.8854  140.7704  163.1751 N.pl3   1  UNL1       -0.2439
     18 N         138.9959  142.2602  163.4518 N.2     1  UNL1       -0.0653
     19 H         136.3026  140.0481  163.5037 H       1  UNL1        0.2885
     20 H         136.6660  141.2369  162.3365 H       1  UNL1        0.2885
     21 C         140.8021  140.0115  168.2806 C.1     1  UNL1        0.1196
     22 N         141.8659  140.0587  169.3371 N.1     1  UNL1       -0.1893
     23 N         141.7655  143.7343  159.3886 N.am    1  UNL1       -0.2791
     24 C         143.2160  143.3521  159.3955 C.2     1  UNL1        0.2672
     25 O         143.9954  143.3899  160.6765 O.2     1  UNL1       -0.2682
     26 H         141.2539  143.7095  158.5478 H       1  UNL1        0.1552
     27 C         143.8870  142.9321  158.1214 C.ar    1  UNL1        0.1348
     28 C         143.1307  142.9727  156.8267 C.ar    1  UNL1        0.0246
     29 C         143.8017  142.5528  155.5526 C.ar    1  UNL1        0.0147
     30 C         145.2291  142.0922  155.5732 C.ar    1  UNL1        0.0768
     31 CL        145.9002  141.6723  154.2991 Cl      1  UNL1       -0.0806
     32 C         145.9855  142.0517  156.8680 C.ar    1  UNL1        0.1103
     33 N         145.3145  142.4716  158.1421 N.ar    1  UNL1       -0.2384
@<TRIPOS>BOND
     1     9     8    1
     2     9     1    1
     3     1     2   ar
     4     2     3   ar
     5     3    23    1
     6    23    24   am
     7    24    25    2
     8    24    27    1
     9    27    28   ar
    10    28    29   ar
    11    29    30   ar
    12    30    31    1
    13    30    32   ar
    14    32    33   ar
    15     3     4   ar
    16     4     5   ar
    17     5     6   ar
    18     6     7    1
    19     9    10    1
    20    10    11    1
    21    11    12   ar
    22    12    21    1
    23    21    22    3
    24    12    13   ar
    25    13    14   ar
    26    14    15   ar
    27    15    16    1
    28    16    17    1
    29    16    18    2
    30    18     9    1
    31     6     1   ar
    32    15    11   ar
    33    33    27   ar
    34    23    26    1
    35    17    19    1
    36    17    20    1
@<TRIPOS>MOLECULE
*****
 33 36 0 0 0
SMALL
GASTEIGER

@<TRIPOS>ATOM
      1 C         140.6860  139.1557  163.4661 C.ar    1  UNL1        0.0522
      2 C         141.5049  139.8628  162.4272 C.ar    1  UNL1        0.0167
      3 C         141.2097  139.6563  160.9711 C.ar    1  UNL1        0.0505
      4 C         140.0955  138.7427  160.5540 C.ar    1  UNL1        0.0170
      5 C         139.2766  138.0356  161.5930 C.ar    1  UNL1        0.0307
      6 C         139.5719  138.2422  163.0491 C.ar    1  UNL1        0.1401
      7 F         138.7530  137.5351  164.0881 F       1  UNL1       -0.2044
      8 C         141.6416  138.0324  164.7087 C.3     1  UNL1        0.0601
      9 C         140.9812  139.3623  164.9223 C.3     1  UNL1        0.2163
     10 C         141.5058  139.1069  166.3042 C.3     1  UNL1        0.1614
     11 N         141.2675  140.1096  167.3940 N.ar    1  UNL1       -0.2929
     12 C         141.6605  140.1312  168.8415 C.ar    1  UNL1        0.1503
     13 C         141.1404  141.4026  169.4440 C.ar    1  UNL1        0.1285
     14 N         140.4261  142.1668  168.3689 N.ar    1  UNL1       -0.2180
     15 C         140.5047  141.3677  167.1019 C.ar    1  UNL1        0.2279
     16 C         139.9801  141.6230  165.7200 C.2     1  UNL1        0.3476
     17 N         139.2173  142.8811  165.4280 N.pl3   1  UNL1       -0.2439
     18 N         140.2184  140.6203  164.6302 N.2     1  UNL1       -0.0653
     19 H         139.0609  143.5393  166.1432 H       1  UNL1        0.2885
     20 H         138.8730  143.0487  164.5210 H       1  UNL1        0.2885
     21 C         142.4370  139.0680  169.5602 C.1     1  UNL1        0.1196
     22 N         143.2136  138.0048  170.2790 N.1     1  UNL1       -0.1893
     23 N         142.0286  140.3633  159.9322 N.am    1  UNL1       -0.2791
     24 C         143.2777  139.7257  159.3998 C.2     1  UNL1        0.2672
     25 O         143.7078  138.3810  159.9064 O.2     1  UNL1       -0.2682
     26 H         141.7463  141.2459  159.5997 H       1  UNL1        0.1552
     27 C         144.0966  140.4329  158.3609 C.ar    1  UNL1        0.1348
     28 C         144.5253  141.8530  158.5826 C.ar    1  UNL1        0.0246
     29 C         145.3442  142.5602  157.5437 C.ar    1  UNL1        0.0147
     30 C         145.7344  141.8471  156.2831 C.ar    1  UNL1        0.0768
     31 CL        146.5533  142.5542  155.2441 Cl      1  UNL1       -0.0806
     32 C         145.3056  140.4268  156.0614 C.ar    1  UNL1        0.1103
     33 N         144.4868  139.7197  157.1002 N.ar    1  UNL1       -0.2384
@<TRIPOS>BOND
     1     9     8    1
     2     9     1    1
     3     1     2   ar
     4     2     3   ar
     5     3    23    1
     6    23    24   am
     7    24    25    2
     8    24    27    1
     9    27    28   ar
    10    28    29   ar
    11    29    30   ar
    12    30    31    1
    13    30    32   ar
    14    32    33   ar
    15     3     4   ar
    16     4     5   ar
    17     5     6   ar
    18     6     7    1
    19     9    10    1
    20    10    11    1
    21    11    12   ar
    22    12    21    1
    23    21    22    3
    24    12    13   ar
    25    13    14   ar
    26    14    15   ar
    27    15    16    1
    28    16    17    1
    29    16    18    2
    30    18     9    1
    31     6     1   ar
    32    15    11   ar
    33    33    27   ar
    34    23    26    1
    35    17    19    1
    36    17    20    1
@<TRIPOS>MOLECULE
*****
 33 36 0 0 0
SMALL
GASTEIGER

@<TRIPOS>ATOM
      1 C         142.1102  140.2968  164.1658 C.ar    1  UNL1        0.0522
      2 C         141.5936  141.1436  163.0407 C.ar    1  UNL1        0.0167
      3 C         142.0862  140.9148  161.6424 C.ar    1  UNL1        0.0505
      4 C         143.0954  139.8392  161.3694 C.ar    1  UNL1        0.0170
      5 C         143.6120  138.9924  162.4946 C.ar    1  UNL1        0.0307
      6 C         143.1194  139.2213  163.8928 C.ar    1  UNL1        0.1401
      7 F         143.6360  138.3744  165.0180 F       1  UNL1       -0.2044
      8 C         140.6214  139.5043  165.1008 C.3     1  UNL1        0.0601
      9 C         141.6177  140.5256  165.5641 C.3     1  UNL1        0.2163
     10 C         140.7790  140.3997  166.8014 C.3     1  UNL1        0.1614
     11 N         141.1078  141.2155  168.0164 N.ar    1  UNL1       -0.2929
     12 C         140.4671  141.3033  169.3698 C.ar    1  UNL1        0.1503
     13 C         141.2384  142.2994  170.1840 C.ar    1  UNL1        0.1285
     14 N         142.3558  142.8272  169.3338 N.ar    1  UNL1       -0.2180
     15 C         142.2751  142.1573  167.9941 C.ar    1  UNL1        0.2279
     16 C         143.1136  142.2832  166.7568 C.2     1  UNL1        0.3476
     17 N         144.2809  143.2250  166.7345 N.pl3   1  UNL1       -0.2439
     18 N         142.7849  141.4673  165.5418 N.2     1  UNL1       -0.0653
     19 H         144.4967  143.7605  167.5319 H       1  UNL1        0.2885
     20 H         144.8313  143.3076  165.9224 H       1  UNL1        0.2885
     21 C         139.2660  140.5307  169.8286 C.1     1  UNL1        0.1196
     22 N         138.0648  139.7582  170.2873 N.1     1  UNL1       -0.1893
     23 N         141.5695  141.7616  160.5173 N.am    1  UNL1       -0.2791
     24 C         142.2044  143.0888  160.2246 C.2     1  UNL1        0.2672
     25 O         143.3559  143.5691  161.0571 O.2     1  UNL1       -0.2682
     26 H         140.8137  141.4464  159.9709 H       1  UNL1        0.1552
     27 C         141.6877  143.9356  159.0994 C.ar    1  UNL1        0.1348
     28 C         140.3400  143.6520  158.5051 C.ar    1  UNL1        0.0246
     29 C         139.8233  144.4988  157.3799 C.ar    1  UNL1        0.0147
     30 C         140.6543  145.6291  156.8492 C.ar    1  UNL1        0.0768
     31 CL        140.1376  146.4760  155.7240 Cl      1  UNL1       -0.0806
     32 C         142.0020  145.9127  157.4436 C.ar    1  UNL1        0.1103
     33 N         142.5187  145.0660  158.5687 N.ar    1  UNL1       -0.2384
@<TRIPOS>BOND
     1     9     8    1
     2     9     1    1
     3     1     2   ar
     4     2     3   ar
     5     3    23    1
     6    23    24   am
     7    24    25    2
     8    24    27    1
     9    27    28   ar
    10    28    29   ar
    11    29    30   ar
    12    30    31    1
    13    30    32   ar
    14    32    33   ar
    15     3     4   ar
    16     4     5   ar
    17     5     6   ar
    18     6     7    1
    19     9    10    1
    20    10    11    1
    21    11    12   ar
    22    12    21    1
    23    21    22    3
    24    12    13   ar
    25    13    14   ar
    26    14    15   ar
    27    15    16    1
    28    16    17    1
    29    16    18    2
    30    18     9    1
    31     6     1   ar
    32    15    11   ar
    33    33    27   ar
    34    23    26    1
    35    17    19    1
    36    17    20    1
