@<TRIPOS>MOLECULE
*****
 39 42 0 0 0
SMALL
GASTEIGER

@<TRIPOS>ATOM
      1 C         141.4026  142.8281  162.5724 C.2     1  UNL1        0.2486
      2 O         140.7037  141.5186  162.7884 O.2     1  UNL1       -0.2726
      3 N         141.8864  143.6230  163.7489 N.am    1  UNL1       -0.2823
      4 H         142.3452  144.4825  163.6072 H       1  UNL1        0.1549
      5 O         139.5162  146.7086  160.5676 O.2     1  UNL1       -0.2649
      6 C         140.0567  145.5099  161.2893 C.2     1  UNL1        0.3037
      7 N         140.9991  144.5754  160.5902 N.am    1  UNL1       -0.2582
      8 C         141.4883  144.7096  159.1786 C.3     1  UNL1        0.1211
      9 C         142.4093  143.5598  158.8959 C.ar    1  UNL1       -0.0030
     10 C         143.1855  143.1730  157.6721 C.ar    1  UNL1        0.0155
     11 C         144.0416  141.9414  157.6851 C.ar    1  UNL1        0.1054
     12 C         144.1215  141.0966  158.9221 C.ar    1  UNL1        0.0181
     13 C         143.3454  141.4835  160.1459 C.ar    1  UNL1       -0.0011
     14 C         142.4893  142.7151  160.1329 C.ar    1  UNL1        0.0023
     15 C         141.6177  143.3428  161.1800 C.3     1  UNL1        0.1754
     16 S         144.8178  141.5545  156.4612 S.O2    1  UNL1        0.0086
     17 O         144.5026  142.8834  155.8412 O.2     1  UNL1       -0.1686
     18 O         145.1329  140.2255  157.0812 O.2     1  UNL1       -0.1686
     19 C         145.5939  141.1675  155.2374 C.3     1  UNL1        0.1559
     20 C         147.0235  141.5971  155.0889 C.3     1  UNL1        0.0240
     21 C         148.3349  141.9824  155.7066 C.3     1  UNL1        0.0018
     22 C         148.1879  141.9558  154.2141 C.3     1  UNL1        0.0018
     23 C         141.6713  143.1084  165.1414 C.ar    1  UNL1        0.0503
     24 C         142.8040  142.4679  165.8876 C.ar    1  UNL1        0.0144
     25 C         142.5888  141.9533  167.2800 C.ar    1  UNL1       -0.0002
     26 C         141.2410  142.0791  167.9261 C.ar    1  UNL1        0.0182
     27 C         140.1083  142.7195  167.1799 C.ar    1  UNL1       -0.0002
     28 C         140.3235  143.2342  165.7875 C.ar    1  UNL1        0.0144
     29 C         141.0258  141.5644  169.3186 C.3     1  UNL1        0.2827
     30 O         141.4407  140.1926  168.8758 O.3     1  UNL1       -0.3692
     31 H         141.3989  139.5832  169.6293 H       1  UNL1        0.2112
     32 C         140.8105  141.0499  170.7110 C.3     1  UNL1        0.4311
     33 F         140.5953  140.5353  172.1035 F       1  UNL1       -0.1669
     34 F         141.4924  141.4708  171.0884 F       1  UNL1       -0.1669
     35 F         139.6206  140.2685  170.2383 F       1  UNL1       -0.1669
     36 C         140.6109  142.9362  169.7614 C.3     1  UNL1        0.4311
     37 F         140.1959  144.3080  170.2042 F       1  UNL1       -0.1669
     38 F         139.7405  142.7772  169.8041 F       1  UNL1       -0.1669
     39 F         141.9018  143.6948  169.8506 F       1  UNL1       -0.1669
@<TRIPOS>BOND
     1     5     6    2
     2     6     7   am
     3     7     8    1
     4     8     9    1
     5     9    10   ar
     6    10    11   ar
     7    11    16    1
     8    16    17    2
     9    16    18    2
    10    16    19    1
    11    19    20    1
    12    20    21    1
    13    21    22    1
    14    11    12   ar
    15    12    13   ar
    16    13    14   ar
    17    14    15    1
    18    15     1    1
    19     1     2    2
    20     1     3   am
    21     3    23    1
    22    23    24   ar
    23    24    25   ar
    24    25    26   ar
    25    26    29    1
    26    29    30    1
    27    29    32    1
    28    32    33    1
    29    32    34    1
    30    32    35    1
    31    29    36    1
    32    36    37    1
    33    36    38    1
    34    36    39    1
    35    26    27   ar
    36    27    28   ar
    37    15     7    1
    38    28    23   ar
    39    14     9   ar
    40    22    20    1
    41     3     4    1
    42    30    31    1
@<TRIPOS>MOLECULE
*****
 39 42 0 0 0
SMALL
GASTEIGER

@<TRIPOS>ATOM
      1 C         141.8961  143.6865  162.8899 C.2     1  UNL1        0.2486
      2 O         142.6679  144.5678  163.8266 O.2     1  UNL1       -0.2726
      3 N         141.1616  142.4906  163.4195 N.am    1  UNL1       -0.2823
      4 H         140.6550  141.9121  162.8047 H       1  UNL1        0.1549
      5 O         139.2245  146.9349  160.6658 O.2     1  UNL1       -0.2649
      6 C         140.0210  145.9420  161.4593 C.2     1  UNL1        0.3037
      7 N         140.9967  145.0378  160.7662 N.am    1  UNL1       -0.2582
      8 C         141.2819  145.0115  159.2938 C.3     1  UNL1        0.1211
      9 C         142.3200  143.9586  159.0414 C.ar    1  UNL1       -0.0030
     10 C         142.9868  143.4878  157.7829 C.ar    1  UNL1        0.0155
     11 C         144.0100  142.3926  157.8409 C.ar    1  UNL1        0.1054
     12 C         144.3664  141.7681  159.1573 C.ar    1  UNL1        0.0181
     13 C         143.6996  142.2388  160.4158 C.ar    1  UNL1       -0.0011
     14 C         142.6765  143.3341  160.3578 C.ar    1  UNL1        0.0023
     15 C         141.8586  144.0011  161.4238 C.3     1  UNL1        0.1754
     16 S         144.6768  141.9217  156.5824 S.O2    1  UNL1        0.0086
     17 O         145.2251  140.7345  157.3171 O.2     1  UNL1       -0.1686
     18 O         144.1285  143.1090  155.8478 O.2     1  UNL1       -0.1686
     19 C         145.3436  141.4509  155.3240 C.3     1  UNL1        0.1559
     20 C         146.7600  141.8489  155.0316 C.3     1  UNL1        0.0240
     21 C         147.7481  142.6300  154.2170 C.3     1  UNL1        0.0018
     22 C         148.2252  141.7572  155.3398 C.3     1  UNL1        0.0018
     23 C         141.1991  142.1760  164.8856 C.ar    1  UNL1        0.0503
     24 C         142.1287  141.1182  165.4023 C.ar    1  UNL1        0.0144
     25 C         142.1662  140.8037  166.8685 C.ar    1  UNL1       -0.0002
     26 C         141.2740  141.5470  167.8179 C.ar    1  UNL1        0.0182
     27 C         140.3444  142.6047  167.3013 C.ar    1  UNL1       -0.0002
     28 C         140.3069  142.9193  165.8351 C.ar    1  UNL1        0.0144
     29 C         141.3114  141.2325  169.2841 C.3     1  UNL1        0.2827
     30 O         142.6467  141.9068  169.3948 O.3     1  UNL1       -0.3692
     31 H         142.9572  141.8604  170.3126 H       1  UNL1        0.2112
     32 C         141.3487  140.9180  170.7503 C.3     1  UNL1        0.4311
     33 F         141.3860  140.6034  172.2165 F       1  UNL1       -0.1669
     34 F         141.4190  140.0386  170.6704 F       1  UNL1       -0.1669
     35 F         141.2333  142.3796  171.0668 F       1  UNL1       -0.1669
     36 C         139.9761  140.5581  169.1735 C.3     1  UNL1        0.4311
     37 F         138.6408  139.8837  169.0627 F       1  UNL1       -0.1669
     38 F         140.2389  139.8809  168.6666 F       1  UNL1       -0.1669
     39 F         139.0588  141.4356  169.9726 F       1  UNL1       -0.1669
@<TRIPOS>BOND
     1     5     6    2
     2     6     7   am
     3     7     8    1
     4     8     9    1
     5     9    10   ar
     6    10    11   ar
     7    11    16    1
     8    16    17    2
     9    16    18    2
    10    16    19    1
    11    19    20    1
    12    20    21    1
    13    21    22    1
    14    11    12   ar
    15    12    13   ar
    16    13    14   ar
    17    14    15    1
    18    15     1    1
    19     1     2    2
    20     1     3   am
    21     3    23    1
    22    23    24   ar
    23    24    25   ar
    24    25    26   ar
    25    26    29    1
    26    29    30    1
    27    29    32    1
    28    32    33    1
    29    32    34    1
    30    32    35    1
    31    29    36    1
    32    36    37    1
    33    36    38    1
    34    36    39    1
    35    26    27   ar
    36    27    28   ar
    37    15     7    1
    38    28    23   ar
    39    14     9   ar
    40    22    20    1
    41     3     4    1
    42    30    31    1
@<TRIPOS>MOLECULE
*****
 39 42 0 0 0
SMALL
GASTEIGER

@<TRIPOS>ATOM
      1 C         140.2641  139.0795  161.0332 C.2     1  UNL1        0.2486
      2 O         139.4157  137.8476  160.9213 O.2     1  UNL1       -0.2726
      3 N         141.2940  139.3786  159.9843 N.am    1  UNL1       -0.2823
      4 H         141.8509  140.1871  160.0577 H       1  UNL1        0.1549
      5 O         137.6882  143.0762  161.1951 O.2     1  UNL1       -0.2649
      6 C         138.4694  141.8050  161.0416 C.2     1  UNL1        0.3037
      7 N         139.2579  141.2650  162.1977 N.am    1  UNL1       -0.2582
      8 C         139.3600  141.8829  163.5607 C.3     1  UNL1        0.1211
      9 C         140.2480  141.0121  164.3992 C.ar    1  UNL1       -0.0030
     10 C         140.7075  141.1225  165.8228 C.ar    1  UNL1        0.0155
     11 C         141.6138  140.0768  166.4016 C.ar    1  UNL1        0.1054
     12 C         142.0605  138.9206  165.5568 C.ar    1  UNL1        0.0181
     13 C         141.6010  138.8102  164.1332 C.ar    1  UNL1       -0.0011
     14 C         140.6948  139.8559  163.5544 C.ar    1  UNL1        0.0023
     15 C         140.0829  140.0122  162.1939 C.3     1  UNL1        0.1754
     16 S         142.0733  140.1872  167.8252 S.O2    1  UNL1        0.0086
     17 O         143.1907  139.2284  167.5390 O.2     1  UNL1       -0.1686
     18 O         140.9559  141.1461  168.1115 O.2     1  UNL1       -0.1686
     19 C         142.5328  140.2977  169.2488 C.3     1  UNL1        0.1559
     20 C         143.1051  141.5889  169.7542 C.3     1  UNL1        0.0240
     21 C         142.9300  142.8957  170.4695 C.3     1  UNL1        0.0018
     22 C         144.2714  142.5185  169.9142 C.3     1  UNL1        0.0018
     23 C         141.4752  138.4459  158.8236 C.ar    1  UNL1        0.0503
     24 C         142.6630  137.5311  158.7749 C.ar    1  UNL1        0.0144
     25 C         142.8443  136.5984  157.6143 C.ar    1  UNL1       -0.0002
     26 C         141.8377  136.5804  156.5024 C.ar    1  UNL1        0.0182
     27 C         140.6499  137.4952  156.5511 C.ar    1  UNL1       -0.0002
     28 C         140.4686  138.4279  157.7117 C.ar    1  UNL1        0.0144
     29 C         142.0189  135.6477  155.3416 C.3     1  UNL1        0.2827
     30 O         140.5868  135.2182  155.4631 O.3     1  UNL1       -0.3692
     31 H         140.3886  134.5570  154.7816 H       1  UNL1        0.2112
     32 C         142.2001  134.7150  154.1809 C.3     1  UNL1        0.4311
     33 F         142.3814  133.7823  153.0202 F       1  UNL1       -0.1669
     34 F         142.3351  135.3357  153.5636 F       1  UNL1       -0.1669
     35 F         141.9920  133.5413  155.0915 F       1  UNL1       -0.1669
     36 C         143.4509  136.0772  155.2202 C.3     1  UNL1        0.4311
     37 F         144.8830  136.5067  155.0987 F       1  UNL1       -0.1669
     38 F         143.2930  136.8974  154.9256 F       1  UNL1       -0.1669
     39 F         144.2295  134.8743  155.6640 F       1  UNL1       -0.1669
@<TRIPOS>BOND
     1     5     6    2
     2     6     7   am
     3     7     8    1
     4     8     9    1
     5     9    10   ar
     6    10    11   ar
     7    11    16    1
     8    16    17    2
     9    16    18    2
    10    16    19    1
    11    19    20    1
    12    20    21    1
    13    21    22    1
    14    11    12   ar
    15    12    13   ar
    16    13    14   ar
    17    14    15    1
    18    15     1    1
    19     1     2    2
    20     1     3   am
    21     3    23    1
    22    23    24   ar
    23    24    25   ar
    24    25    26   ar
    25    26    29    1
    26    29    30    1
    27    29    32    1
    28    32    33    1
    29    32    34    1
    30    32    35    1
    31    29    36    1
    32    36    37    1
    33    36    38    1
    34    36    39    1
    35    26    27   ar
    36    27    28   ar
    37    15     7    1
    38    28    23   ar
    39    14     9   ar
    40    22    20    1
    41     3     4    1
    42    30    31    1
@<TRIPOS>MOLECULE
*****
 39 42 0 0 0
SMALL
GASTEIGER

@<TRIPOS>ATOM
      1 C         138.8355  142.3924  161.4364 C.2     1  UNL1        0.2486
      2 O         137.6457  143.2806  161.2239 O.2     1  UNL1       -0.2726
      3 N         140.0055  142.4694  160.5008 N.am    1  UNL1       -0.2823
      4 H         140.7865  141.8865  160.6403 H       1  UNL1        0.1549
      5 O         137.2617  137.9031  161.5072 O.2     1  UNL1       -0.2649
      6 C         137.7271  139.3235  161.3819 C.2     1  UNL1        0.3037
      7 N         138.3460  140.0166  162.5594 N.am    1  UNL1       -0.2582
      8 C         138.5642  139.4208  163.9186 C.3     1  UNL1        0.1211
      9 C         139.2084  140.4632  164.7837 C.ar    1  UNL1       -0.0030
     10 C         139.6544  140.4434  166.2157 C.ar    1  UNL1        0.0155
     11 C         140.2804  141.6636  166.8232 C.ar    1  UNL1        0.1054
     12 C         140.4604  142.9037  165.9986 C.ar    1  UNL1        0.0181
     13 C         140.0145  142.9235  164.5666 C.ar    1  UNL1       -0.0011
     14 C         139.3885  141.7032  163.9592 C.ar    1  UNL1        0.0023
     15 C         138.8555  141.4272  162.5845 C.3     1  UNL1        0.1754
     16 S         140.7263  141.6439  168.2553 S.O2    1  UNL1        0.0086
     17 O         140.5393  143.1300  168.3341 O.2     1  UNL1       -0.1686
     18 O         140.9134  140.1577  168.1765 O.2     1  UNL1       -0.1686
     19 C         141.1723  141.6241  169.6873 C.3     1  UNL1        0.1559
     20 C         142.4509  142.3008  170.0841 C.3     1  UNL1        0.0240
     21 C         143.9478  142.3819  170.0331 C.3     1  UNL1        0.0018
     22 C         143.1685  143.3917  170.8223 C.3     1  UNL1        0.0018
     23 C         139.9855  143.4346  159.3528 C.ar    1  UNL1        0.0503
     24 C         140.6873  144.7551  159.4708 C.ar    1  UNL1        0.0144
     25 C         140.6673  145.7203  158.3227 C.ar    1  UNL1       -0.0002
     26 C         139.9455  145.3649  157.0567 C.ar    1  UNL1        0.0182
     27 C         139.2438  144.0445  156.9387 C.ar    1  UNL1       -0.0002
     28 C         139.2638  143.0793  158.0868 C.ar    1  UNL1        0.0144
     29 C         139.9255  146.3301  155.9086 C.3     1  UNL1        0.2827
     30 O         139.3790  147.3947  156.8130 O.3     1  UNL1       -0.3692
     31 H         139.2490  148.2126  156.3079 H       1  UNL1        0.2112
     32 C         139.9055  147.2951  154.7605 C.3     1  UNL1        0.4311
     33 F         139.8855  148.2602  153.6123 F       1  UNL1       -0.1669
     34 F         140.7793  147.3099  154.6165 F       1  UNL1       -0.1669
     35 F         138.4120  147.3885  154.8649 F       1  UNL1       -0.1669
     36 C         140.4720  145.2654  155.0042 C.3     1  UNL1        0.4311
     37 F         141.0184  144.2008  154.0998 F       1  UNL1       -0.1669
     38 F         139.7341  145.1359  154.5317 F       1  UNL1       -0.1669
     39 F         141.8910  145.0954  155.4598 F       1  UNL1       -0.1669
@<TRIPOS>BOND
     1     5     6    2
     2     6     7   am
     3     7     8    1
     4     8     9    1
     5     9    10   ar
     6    10    11   ar
     7    11    16    1
     8    16    17    2
     9    16    18    2
    10    16    19    1
    11    19    20    1
    12    20    21    1
    13    21    22    1
    14    11    12   ar
    15    12    13   ar
    16    13    14   ar
    17    14    15    1
    18    15     1    1
    19     1     2    2
    20     1     3   am
    21     3    23    1
    22    23    24   ar
    23    24    25   ar
    24    25    26   ar
    25    26    29    1
    26    29    30    1
    27    29    32    1
    28    32    33    1
    29    32    34    1
    30    32    35    1
    31    29    36    1
    32    36    37    1
    33    36    38    1
    34    36    39    1
    35    26    27   ar
    36    27    28   ar
    37    15     7    1
    38    28    23   ar
    39    14     9   ar
    40    22    20    1
    41     3     4    1
    42    30    31    1
@<TRIPOS>MOLECULE
*****
 39 42 0 0 0
SMALL
GASTEIGER

@<TRIPOS>ATOM
      1 C         141.9019  141.5069  161.9600 C.2     1  UNL1        0.2486
      2 O         140.6099  141.9719  162.5638 O.2     1  UNL1       -0.2726
      3 N         143.0060  141.0075  162.8442 N.am    1  UNL1       -0.2823
      4 H         143.8540  140.7023  162.4479 H       1  UNL1        0.1549
      5 O         141.8891  145.3091  159.1002 O.2     1  UNL1       -0.2649
      6 C         141.8758  144.1773  160.0844 C.2     1  UNL1        0.3037
      7 N         142.0778  142.7686  159.6101 N.am    1  UNL1       -0.2582
      8 C         142.3032  142.3400  158.1904 C.3     1  UNL1        0.1211
      9 C         142.4546  140.8477  158.1752 C.ar    1  UNL1       -0.0030
     10 C         142.6955  139.8747  157.0593 C.ar    1  UNL1        0.0155
     11 C         142.8044  138.4080  157.3537 C.ar    1  UNL1        0.1054
     12 C         142.6725  137.9143  158.7640 C.ar    1  UNL1        0.0181
     13 C         142.4316  138.8873  159.8798 C.ar    1  UNL1       -0.0011
     14 C         142.3226  140.3540  159.5854 C.ar    1  UNL1        0.0023
     15 C         142.0898  141.5412  160.4722 C.3     1  UNL1        0.1754
     16 S         143.0453  137.4348  156.2379 S.O2    1  UNL1        0.0086
     17 O         141.7081  136.8067  156.4969 O.2     1  UNL1       -0.1686
     18 O         144.3825  138.0630  155.9788 O.2     1  UNL1       -0.1686
     19 C         143.2862  136.4618  155.1221 C.3     1  UNL1        0.1559
     20 C         143.3506  134.9911  155.4102 C.3     1  UNL1        0.0240
     21 C         143.8028  133.8566  156.2810 C.3     1  UNL1        0.0018
     22 C         143.0098  133.5784  155.0386 C.3     1  UNL1        0.0018
     23 C         142.8181  140.9733  164.3320 C.ar    1  UNL1        0.0503
     24 C         142.1554  139.7924  164.9772 C.ar    1  UNL1        0.0144
     25 C         141.9675  139.7581  166.4650 C.ar    1  UNL1       -0.0002
     26 C         142.4424  140.9047  167.3075 C.ar    1  UNL1        0.0182
     27 C         143.1051  142.0856  166.6622 C.ar    1  UNL1       -0.0002
     28 C         143.2930  142.1198  165.1744 C.ar    1  UNL1        0.0144
     29 C         142.2545  140.8705  168.7953 C.3     1  UNL1        0.2827
     30 O         143.0383  139.5935  168.8650 O.3     1  UNL1       -0.3692
     31 H         143.0927  139.2974  169.7871 H       1  UNL1        0.2112
     32 C         142.0666  140.8364  170.2831 C.3     1  UNL1        0.4311
     33 F         141.8787  140.8023  171.7709 F       1  UNL1       -0.1669
     34 F         141.1838  140.7640  170.2789 F       1  UNL1       -0.1669
     35 F         143.5497  140.9557  170.4731 F       1  UNL1       -0.1669
     36 C         141.4707  142.1475  168.7256 C.3     1  UNL1        0.4311
     37 F         140.6868  143.4245  168.6558 F       1  UNL1       -0.1669
     38 F         140.7690  141.8202  168.2953 F       1  UNL1       -0.1669
     39 F         142.3491  143.1507  169.4127 F       1  UNL1       -0.1669
@<TRIPOS>BOND
     1     5     6    2
     2     6     7   am
     3     7     8    1
     4     8     9    1
     5     9    10   ar
     6    10    11   ar
     7    11    16    1
     8    16    17    2
     9    16    18    2
    10    16    19    1
    11    19    20    1
    12    20    21    1
    13    21    22    1
    14    11    12   ar
    15    12    13   ar
    16    13    14   ar
    17    14    15    1
    18    15     1    1
    19     1     2    2
    20     1     3   am
    21     3    23    1
    22    23    24   ar
    23    24    25   ar
    24    25    26   ar
    25    26    29    1
    26    29    30    1
    27    29    32    1
    28    32    33    1
    29    32    34    1
    30    32    35    1
    31    29    36    1
    32    36    37    1
    33    36    38    1
    34    36    39    1
    35    26    27   ar
    36    27    28   ar
    37    15     7    1
    38    28    23   ar
    39    14     9   ar
    40    22    20    1
    41     3     4    1
    42    30    31    1
@<TRIPOS>MOLECULE
*****
 39 42 0 0 0
SMALL
GASTEIGER

@<TRIPOS>ATOM
      1 C         142.0164  138.0203  157.4670 C.2     1  UNL1        0.2486
      2 O         140.7846  138.6240  158.0736 O.2     1  UNL1       -0.2726
      3 N         143.3701  138.5572  157.8273 N.am    1  UNL1       -0.2823
      4 H         144.1786  138.1610  157.4292 H       1  UNL1        0.1549
      5 O         139.5988  137.9071  153.3710 O.2     1  UNL1       -0.2649
      6 C         140.3275  138.0443  154.6748 C.2     1  UNL1        0.3037
      7 N         141.1186  136.8909  155.2169 N.am    1  UNL1       -0.2582
      8 C         141.2723  135.5459  154.5707 C.3     1  UNL1        0.1211
      9 C         142.1435  134.7037  155.4548 C.ar    1  UNL1       -0.0030
     10 C         142.6362  133.2926  155.3279 C.ar    1  UNL1        0.0155
     11 C         143.5136  132.7060  156.3937 C.ar    1  UNL1        0.1054
     12 C         143.8984  133.5304  157.5862 C.ar    1  UNL1        0.0181
     13 C         143.4058  134.9415  157.7131 C.ar    1  UNL1       -0.0011
     14 C         142.5283  135.5281  156.6474 C.ar    1  UNL1        0.0023
     15 C         141.8949  136.8798  156.5003 C.3     1  UNL1        0.1754
     16 S         144.0063  131.2948  156.2668 S.O2    1  UNL1        0.0086
     17 O         145.4191  131.7942  156.1989 O.2     1  UNL1       -0.1686
     18 O         142.5935  130.7955  156.3348 O.2     1  UNL1       -0.1686
     19 C         144.4989  129.8838  156.1400 C.3     1  UNL1        0.1559
     20 C         144.5831  129.0067  157.3541 C.3     1  UNL1        0.0240
     21 C         144.6302  128.8540  158.8455 C.3     1  UNL1        0.0018
     22 C         144.6816  127.6405  157.9654 C.3     1  UNL1        0.0018
     23 C         143.4916  139.6977  158.7940 C.ar    1  UNL1        0.0503
     24 C         143.8574  141.0653  158.2983 C.ar    1  UNL1        0.0144
     25 C         143.9790  142.2058  159.2650 C.ar    1  UNL1       -0.0002
     26 C         143.7347  141.9785  160.7274 C.ar    1  UNL1        0.0182
     27 C         143.3689  140.6109  161.2231 C.ar    1  UNL1       -0.0002
     28 C         143.2473  139.4704  160.2564 C.ar    1  UNL1        0.0144
     29 C         143.8562  143.1190  161.6942 C.3     1  UNL1        0.2827
     30 O         142.8108  143.8772  160.9313 O.3     1  UNL1       -0.3692
     31 H         142.6595  144.7360  161.3564 H       1  UNL1        0.2112
     32 C         143.9778  144.2593  162.6611 C.3     1  UNL1        0.4311
     33 F         144.0994  145.3997  163.6279 F       1  UNL1       -0.1669
     34 F         144.8078  144.4888  162.4537 F       1  UNL1       -0.1669
     35 F         142.5766  144.0079  163.1338 F       1  UNL1       -0.1669
     36 C         144.9017  142.3607  162.4571 C.3     1  UNL1        0.4311
     37 F         145.9472  141.6024  163.2200 F       1  UNL1       -0.1669
     38 F         145.5162  142.3527  161.8193 F       1  UNL1       -0.1669
     39 F         144.2619  142.1000  163.7886 F       1  UNL1       -0.1669
@<TRIPOS>BOND
     1     5     6    2
     2     6     7   am
     3     7     8    1
     4     8     9    1
     5     9    10   ar
     6    10    11   ar
     7    11    16    1
     8    16    17    2
     9    16    18    2
    10    16    19    1
    11    19    20    1
    12    20    21    1
    13    21    22    1
    14    11    12   ar
    15    12    13   ar
    16    13    14   ar
    17    14    15    1
    18    15     1    1
    19     1     2    2
    20     1     3   am
    21     3    23    1
    22    23    24   ar
    23    24    25   ar
    24    25    26   ar
    25    26    29    1
    26    29    30    1
    27    29    32    1
    28    32    33    1
    29    32    34    1
    30    32    35    1
    31    29    36    1
    32    36    37    1
    33    36    38    1
    34    36    39    1
    35    26    27   ar
    36    27    28   ar
    37    15     7    1
    38    28    23   ar
    39    14     9   ar
    40    22    20    1
    41     3     4    1
    42    30    31    1
@<TRIPOS>MOLECULE
*****
 39 42 0 0 0
SMALL
GASTEIGER

@<TRIPOS>ATOM
      1 C         143.0852  139.1509  157.7452 C.2     1  UNL1        0.2486
      2 O         143.1568  138.0446  158.7556 O.2     1  UNL1       -0.2726
      3 N         142.8694  138.8300  156.2958 N.am    1  UNL1       -0.2823
      4 H         142.8224  139.5561  155.6326 H       1  UNL1        0.1549
      5 O         146.5286  142.2269  156.5978 O.2     1  UNL1       -0.2649
      6 C         145.4933  141.1841  156.8985 C.2     1  UNL1        0.3037
      7 N         144.3362  141.5125  157.7948 N.am    1  UNL1       -0.2582
      8 C         144.0829  142.8332  158.4593 C.3     1  UNL1        0.1211
      9 C         142.8195  142.7149  159.2592 C.ar    1  UNL1       -0.0030
     10 C         142.0812  143.6963  160.1205 C.ar    1  UNL1        0.0155
     11 C         140.8154  143.2838  160.8116 C.ar    1  UNL1        0.1054
     12 C         140.2879  141.8900  160.6414 C.ar    1  UNL1        0.0181
     13 C         141.0262  140.9086  159.7801 C.ar    1  UNL1       -0.0011
     14 C         142.2919  141.3211  159.0890 C.ar    1  UNL1        0.0023
     15 C         143.2294  140.5780  158.1840 C.3     1  UNL1        0.1754
     16 S         140.0771  144.2652  161.6729 S.O2    1  UNL1        0.0086
     17 O         138.7715  143.7251  161.1693 O.2     1  UNL1       -0.1686
     18 O         141.3827  144.8053  162.1766 O.2     1  UNL1       -0.1686
     19 C         139.3389  145.2465  162.5342 C.3     1  UNL1        0.1559
     20 C         138.7805  144.8120  163.8569 C.3     1  UNL1        0.0240
     21 C         138.8115  144.8511  165.3561 C.3     1  UNL1        0.0018
     22 C         137.7823  144.0203  164.6487 C.3     1  UNL1        0.0018
     23 C         142.7253  137.4029  155.8570 C.ar    1  UNL1        0.0503
     24 C         143.9373  136.5260  155.7467 C.ar    1  UNL1        0.0144
     25 C         143.7931  135.0989  155.3079 C.ar    1  UNL1       -0.0002
     26 C         142.4369  134.5487  154.9794 C.ar    1  UNL1        0.0182
     27 C         141.2249  135.4255  155.0897 C.ar    1  UNL1       -0.0002
     28 C         141.3691  136.8527  155.5285 C.ar    1  UNL1        0.0144
     29 C         142.2926  133.1216  154.5405 C.3     1  UNL1        0.2827
     30 O         141.9257  133.5827  153.1612 O.3     1  UNL1       -0.3692
     31 H         141.7586  132.8120  152.5963 H       1  UNL1        0.2112
     32 C         142.1484  131.6944  154.1018 C.3     1  UNL1        0.4311
     33 F         142.0042  130.2673  153.6631 F       1  UNL1       -0.1669
     34 F         142.9730  131.5918  153.7951 F       1  UNL1       -0.1669
     35 F         140.7237  131.6941  154.5712 F       1  UNL1       -0.1669
     36 C         142.6596  132.6604  155.9199 C.3     1  UNL1        0.4311
     37 F         143.0265  132.1993  157.2994 F       1  UNL1       -0.1669
     38 F         141.8800  132.8342  156.3028 F       1  UNL1       -0.1669
     39 F         144.0827  132.2062  155.7843 F       1  UNL1       -0.1669
@<TRIPOS>BOND
     1     5     6    2
     2     6     7   am
     3     7     8    1
     4     8     9    1
     5     9    10   ar
     6    10    11   ar
     7    11    16    1
     8    16    17    2
     9    16    18    2
    10    16    19    1
    11    19    20    1
    12    20    21    1
    13    21    22    1
    14    11    12   ar
    15    12    13   ar
    16    13    14   ar
    17    14    15    1
    18    15     1    1
    19     1     2    2
    20     1     3   am
    21     3    23    1
    22    23    24   ar
    23    24    25   ar
    24    25    26   ar
    25    26    29    1
    26    29    30    1
    27    29    32    1
    28    32    33    1
    29    32    34    1
    30    32    35    1
    31    29    36    1
    32    36    37    1
    33    36    38    1
    34    36    39    1
    35    26    27   ar
    36    27    28   ar
    37    15     7    1
    38    28    23   ar
    39    14     9   ar
    40    22    20    1
    41     3     4    1
    42    30    31    1
@<TRIPOS>MOLECULE
*****
 39 42 0 0 0
SMALL
GASTEIGER

@<TRIPOS>ATOM
      1 C         140.7587  140.3912  162.2161 C.2     1  UNL1        0.2486
      2 O         140.1764  139.3162  163.0849 O.2     1  UNL1       -0.2726
      3 N         141.4334  141.5767  162.8403 N.am    1  UNL1       -0.2823
      4 H         141.8157  142.2823  162.2701 H       1  UNL1        0.1549
      5 O         138.1193  143.0127  159.2501 O.2     1  UNL1       -0.2649
      6 C         138.9112  142.2445  160.2663 C.2     1  UNL1        0.3037
      7 N         139.8173  141.1328  159.8268 N.am    1  UNL1       -0.2582
      8 C         140.0333  140.6778  158.4139 C.3     1  UNL1        0.1211
      9 C         141.0160  139.5447  158.4369 C.ar    1  UNL1       -0.0030
     10 C         141.6049  138.7046  157.3427 C.ar    1  UNL1        0.0155
     11 C         142.5853  137.6192  157.6756 C.ar    1  UNL1        0.1054
     12 C         142.9766  137.3740  159.1027 C.ar    1  UNL1        0.0181
     13 C         142.3877  138.2141  160.1969 C.ar    1  UNL1       -0.0011
     14 C         141.4073  139.2994  159.8640 C.ar    1  UNL1        0.0023
     15 C         140.6665  140.2809  160.7230 C.3     1  UNL1        0.1754
     16 S         143.1743  136.7790  156.5814 S.O2    1  UNL1        0.0086
     17 O         143.3669  138.0072  155.7420 O.2     1  UNL1       -0.1686
     18 O         142.9817  135.5509  157.4208 O.2     1  UNL1       -0.1686
     19 C         143.7633  135.9389  155.4873 C.3     1  UNL1        0.1559
     20 C         142.8683  135.1134  154.6111 C.3     1  UNL1        0.0240
     21 C         142.0193  134.9779  153.3820 C.3     1  UNL1        0.0018
     22 C         142.1672  133.8190  154.3228 C.3     1  UNL1        0.0018
     23 C         141.5257  141.6870  164.3334 C.ar    1  UNL1        0.0503
     24 C         142.6485  141.0155  165.0671 C.ar    1  UNL1        0.0144
     25 C         142.7407  141.1257  166.5602 C.ar    1  UNL1       -0.0002
     26 C         141.7101  141.9075  167.3196 C.ar    1  UNL1        0.0182
     27 C         140.5873  142.5790  166.5858 C.ar    1  UNL1       -0.0002
     28 C         140.4950  142.4687  165.0927 C.ar    1  UNL1        0.0144
     29 C         141.8022  142.0178  168.8127 C.3     1  UNL1        0.2827
     30 O         143.1346  142.6941  168.6806 O.3     1  UNL1       -0.3692
     31 H         143.4780  142.9071  169.5624 H       1  UNL1        0.2112
     32 C         141.8943  142.1281  170.3058 C.3     1  UNL1        0.4311
     33 F         141.9864  142.2384  171.7989 F       1  UNL1       -0.1669
     34 F         141.9503  141.2605  170.4750 F       1  UNL1       -0.1669
     35 F         141.8102  143.6220  170.2006 F       1  UNL1       -0.1669
     36 C         140.4699  141.3415  168.9448 C.3     1  UNL1        0.4311
     37 F         139.1374  140.6653  169.0769 F       1  UNL1       -0.1669
     38 F         140.0123  142.0543  169.2041 F       1  UNL1       -0.1669
     39 F         140.7461  139.9174  168.5632 F       1  UNL1       -0.1669
@<TRIPOS>BOND
     1     5     6    2
     2     6     7   am
     3     7     8    1
     4     8     9    1
     5     9    10   ar
     6    10    11   ar
     7    11    16    1
     8    16    17    2
     9    16    18    2
    10    16    19    1
    11    19    20    1
    12    20    21    1
    13    21    22    1
    14    11    12   ar
    15    12    13   ar
    16    13    14   ar
    17    14    15    1
    18    15     1    1
    19     1     2    2
    20     1     3   am
    21     3    23    1
    22    23    24   ar
    23    24    25   ar
    24    25    26   ar
    25    26    29    1
    26    29    30    1
    27    29    32    1
    28    32    33    1
    29    32    34    1
    30    32    35    1
    31    29    36    1
    32    36    37    1
    33    36    38    1
    34    36    39    1
    35    26    27   ar
    36    27    28   ar
    37    15     7    1
    38    28    23   ar
    39    14     9   ar
    40    22    20    1
    41     3     4    1
    42    30    31    1
@<TRIPOS>MOLECULE
*****
 39 42 0 0 0
SMALL
GASTEIGER

@<TRIPOS>ATOM
      1 C         139.9803  141.8027  162.4589 C.2     1  UNL1        0.2486
      2 O         141.4528  141.6518  162.7009 O.2     1  UNL1       -0.2726
      3 N         139.0267  141.8085  163.6169 N.am    1  UNL1       -0.2823
      4 H         138.0601  141.9075  163.4581 H       1  UNL1        0.1549
      5 O         136.5847  139.2455  160.3219 O.2     1  UNL1       -0.2649
      6 C         137.6399  139.9915  161.0835 C.2     1  UNL1        0.3037
      7 N         138.3854  141.1154  160.4269 N.am    1  UNL1       -0.2582
      8 C         138.1861  141.6041  159.0228 C.3     1  UNL1        0.1211
      9 C         139.1386  142.7387  158.7873 C.ar    1  UNL1       -0.0030
     10 C         139.3902  143.6057  157.5894 C.ar    1  UNL1        0.0155
     11 C         140.4298  144.6852  157.6501 C.ar    1  UNL1        0.1054
     12 C         141.2179  144.8977  158.9086 C.ar    1  UNL1        0.0181
     13 C         140.9663  144.0307  160.1064 C.ar    1  UNL1       -0.0011
     14 C         139.9267  142.9512  160.0458 C.ar    1  UNL1        0.0023
     15 C         139.4612  141.9479  161.0591 C.3     1  UNL1        0.1754
     16 S         140.6814  145.5524  156.4522 S.O2    1  UNL1        0.0086
     17 O         141.9227  146.0890  157.1013 O.2     1  UNL1       -0.1686
     18 O         139.4402  145.0158  155.8031 O.2     1  UNL1       -0.1686
     19 C         140.9330  146.4194  155.2544 C.3     1  UNL1        0.1559
     20 C         140.0669  147.6175  155.0005 C.3     1  UNL1        0.0240
     21 C         138.9005  148.4811  155.3798 C.3     1  UNL1        0.0018
     22 C         139.7330  148.8291  154.1815 C.3     1  UNL1        0.0018
     23 C         139.5458  141.6633  165.0167 C.ar    1  UNL1        0.0503
     24 C         140.1238  142.8500  165.7291 C.ar    1  UNL1        0.0144
     25 C         140.6430  142.7048  167.1289 C.ar    1  UNL1       -0.0002
     26 C         140.5840  141.3729  167.8162 C.ar    1  UNL1        0.0182
     27 C         140.0060  140.1862  167.1038 C.ar    1  UNL1       -0.0002
     28 C         139.4869  140.3314  165.7040 C.ar    1  UNL1        0.0144
     29 C         141.1031  141.2276  169.2160 C.3     1  UNL1        0.2827
     30 O         142.5063  141.3953  168.7132 O.3     1  UNL1       -0.3692
     31 H         143.1252  141.3429  169.4582 H       1  UNL1        0.2112
     32 C         141.6221  141.0823  170.6159 C.3     1  UNL1        0.4311
     33 F         142.1411  140.9370  172.0157 F       1  UNL1       -0.1669
     34 F         141.2654  141.8250  170.9410 F       1  UNL1       -0.1669
     35 F         142.2946  139.7973  170.2332 F       1  UNL1       -0.1669
     36 C         139.6999  141.0599  169.7189 C.3     1  UNL1        0.4311
     37 F         138.2966  140.8923  170.2217 F       1  UNL1       -0.1669
     38 F         139.4349  141.8935  169.5793 F       1  UNL1       -0.1669
     39 F         139.6319  139.6194  170.1316 F       1  UNL1       -0.1669
@<TRIPOS>BOND
     1     5     6    2
     2     6     7   am
     3     7     8    1
     4     8     9    1
     5     9    10   ar
     6    10    11   ar
     7    11    16    1
     8    16    17    2
     9    16    18    2
    10    16    19    1
    11    19    20    1
    12    20    21    1
    13    21    22    1
    14    11    12   ar
    15    12    13   ar
    16    13    14   ar
    17    14    15    1
    18    15     1    1
    19     1     2    2
    20     1     3   am
    21     3    23    1
    22    23    24   ar
    23    24    25   ar
    24    25    26   ar
    25    26    29    1
    26    29    30    1
    27    29    32    1
    28    32    33    1
    29    32    34    1
    30    32    35    1
    31    29    36    1
    32    36    37    1
    33    36    38    1
    34    36    39    1
    35    26    27   ar
    36    27    28   ar
    37    15     7    1
    38    28    23   ar
    39    14     9   ar
    40    22    20    1
    41     3     4    1
    42    30    31    1
