@<TRIPOS>MOLECULE
*****
 36 40 0 0 0
SMALL
GASTEIGER

@<TRIPOS>ATOM
      1 C         140.0780  139.5749  159.6695 C.ar    1  UNL1        0.1740
      2 N         140.7216  138.4800  158.8714 N.ar    1  UNL1       -0.2259
      3 C         140.7618  138.5674  157.3745 C.ar    1  UNL1        0.0830
      4 C         140.1585  139.7496  156.6757 C.ar    1  UNL1        0.0199
      5 C         139.5149  140.8444  157.4738 C.ar    1  UNL1        0.0141
      6 C         139.4746  140.7571  158.9706 C.ar    1  UNL1        0.1042
      7 C         143.3311  140.9602  162.5983 C.ar    1  UNL1        0.1681
      8 N         142.6168  140.5690  163.8579 N.ar    1  UNL1       -0.1537
      9 N         141.2961  139.9698  163.4748 N.ar    1  UNL1       -0.2061
     10 C         141.1942  139.9906  161.9785 C.ar    1  UNL1        0.1982
     11 N         140.0377  139.4876  161.1664 N.2     1  UNL1       -0.2011
     12 S         142.4519  140.6027  161.4367 S.2     1  UNL1       -0.0250
     13 C         140.2593  139.4423  164.4219 C.ar    1  UNL1        0.0850
     14 C         139.6028  140.3653  165.4052 C.ar    1  UNL1        0.0201
     15 C         138.5661  139.8378  166.3523 C.ar    1  UNL1        0.0129
     16 C         138.1859  138.3873  166.3160 C.ar    1  UNL1        0.0578
     17 CL        137.1491  137.8598  167.2631 Cl      1  UNL1       -0.0822
     18 C         138.8424  137.4642  165.3327 C.ar    1  UNL1        0.0129
     19 C         139.8791  137.9917  164.3857 C.ar    1  UNL1        0.0201
     20 C         145.6556  141.4501  163.6505 C.3     1  UNL1        0.0796
     21 C         144.6867  141.5970  162.5149 C.2     1  UNL1        0.1989
     22 O         145.0733  142.3809  161.2958 O.2     1  UNL1       -0.2891
     23 C         141.4054  137.4725  156.5763 C.ar    1  UNL1        0.0177
     24 C         142.8579  137.1543  156.7746 C.ar    1  UNL1        0.0015
     25 C         143.5015  136.0594  155.9765 C.ar    1  UNL1        0.0000
     26 C         142.6928  135.2828  154.9800 C.ar    1  UNL1        0.0000
     27 C         141.2404  135.6010  154.7818 C.ar    1  UNL1        0.0000
     28 C         140.5966  136.6959  155.5799 C.ar    1  UNL1        0.0015
     29 C         138.9115  142.0267  156.7749 C.ar    1  UNL1        0.0008
     30 C         139.7520  143.2339  156.4815 C.ar    1  UNL1        0.0000
     31 C         139.1486  144.4160  155.7827 C.ar    1  UNL1        0.0000
     32 C         137.7046  144.3910  155.3773 C.ar    1  UNL1        0.0000
     33 C         136.8641  143.1837  155.6707 C.ar    1  UNL1        0.0000
     34 C         137.4675  142.0016  156.3695 C.ar    1  UNL1        0.0000
     35 C         138.8310  141.8520  159.7688 C.1     1  UNL1        0.1035
     36 N         138.1874  142.9469  160.5670 N.1     1  UNL1       -0.1907
@<TRIPOS>BOND
     1    20    21    1
     2    21    22    2
     3    21     7    1
     4     7     8   ar
     5     8     9   ar
     6     9    13    1
     7    13    14   ar
     8    14    15   ar
     9    15    16   ar
    10    16    17    1
    11    16    18   ar
    12    18    19   ar
    13     9    10   ar
    14    10    11    2
    15    11     1    1
    16     1     2   ar
    17     2     3   ar
    18     3    23    1
    19    23    24   ar
    20    24    25   ar
    21    25    26   ar
    22    26    27   ar
    23    27    28   ar
    24     3     4   ar
    25     4     5   ar
    26     5    29    1
    27    29    30   ar
    28    30    31   ar
    29    31    32   ar
    30    32    33   ar
    31    33    34   ar
    32     5     6   ar
    33     6    35    1
    34    35    36    3
    35    10    12   ar
    36    12     7   ar
    37    19    13   ar
    38     6     1   ar
    39    28    23   ar
    40    34    29   ar
@<TRIPOS>MOLECULE
*****
 36 40 0 0 0
SMALL
GASTEIGER

@<TRIPOS>ATOM
      1 C         140.8426  139.3986  161.2543 C.ar    1  UNL1        0.1740
      2 N         140.0244  138.7947  162.3569 N.ar    1  UNL1       -0.2259
      3 C         139.9340  139.4826  163.6868 C.ar    1  UNL1        0.0830
      4 C         140.6617  140.7743  163.9141 C.ar    1  UNL1        0.0199
      5 C         141.4799  141.3783  162.8115 C.ar    1  UNL1        0.0141
      6 C         141.5704  140.6905  161.4816 C.ar    1  UNL1        0.1042
      7 C         138.2770  140.2356  157.5398 C.ar    1  UNL1        0.1681
      8 N         138.9133  139.2111  156.6479 N.ar    1  UNL1       -0.1537
      9 N         139.9857  138.5153  157.4325 N.ar    1  UNL1       -0.2061
     10 C         140.0122  139.1097  158.8095 C.ar    1  UNL1        0.1982
     11 N         140.9331  138.7109  159.9243 N.2     1  UNL1       -0.2011
     12 S         138.9562  140.1728  158.8758 S.2     1  UNL1       -0.0250
     13 C         140.8754  137.4177  156.9287 C.ar    1  UNL1        0.0850
     14 C         140.3861  136.4871  155.8589 C.ar    1  UNL1        0.0201
     15 C         141.2758  135.3896  155.3551 C.ar    1  UNL1        0.0129
     16 C         142.6549  135.2227  155.9210 C.ar    1  UNL1        0.0578
     17 CL        143.5446  134.1251  155.4172 Cl      1  UNL1       -0.0822
     18 C         143.1442  136.1533  156.9908 C.ar    1  UNL1        0.0129
     19 C         142.2545  137.2508  157.4946 C.ar    1  UNL1        0.0201
     20 C         137.4050  142.6368  157.0667 C.3     1  UNL1        0.0796
     21 C         137.1580  141.1603  157.1622 C.2     1  UNL1        0.1989
     22 O         135.7920  140.6086  156.8800 O.2     1  UNL1       -0.2891
     23 C         139.1158  138.8787  164.7894 C.ar    1  UNL1        0.0177
     24 C         138.8523  137.4020  164.8054 C.ar    1  UNL1        0.0015
     25 C         138.0341  136.7981  165.9080 C.ar    1  UNL1        0.0000
     26 C         137.4793  137.6707  166.9947 C.ar    1  UNL1        0.0000
     27 C         137.7428  139.1473  166.9787 C.ar    1  UNL1        0.0000
     28 C         138.5610  139.7513  165.8760 C.ar    1  UNL1        0.0015
     29 C         142.2077  142.6701  163.0389 C.ar    1  UNL1        0.0008
     30 C         143.6917  142.6666  163.2572 C.ar    1  UNL1        0.0000
     31 C         144.4194  143.9584  163.4846 C.ar    1  UNL1        0.0000
     32 C         143.6631  145.2537  163.4936 C.ar    1  UNL1        0.0000
     33 C         142.1791  145.2572  163.2752 C.ar    1  UNL1        0.0000
     34 C         141.4514  143.9654  163.0479 C.ar    1  UNL1        0.0000
     35 C         142.3886  141.2944  160.3789 C.1     1  UNL1        0.1035
     36 N         143.2069  141.8984  159.2763 N.1     1  UNL1       -0.1907
@<TRIPOS>BOND
     1    20    21    1
     2    21    22    2
     3    21     7    1
     4     7     8   ar
     5     8     9   ar
     6     9    13    1
     7    13    14   ar
     8    14    15   ar
     9    15    16   ar
    10    16    17    1
    11    16    18   ar
    12    18    19   ar
    13     9    10   ar
    14    10    11    2
    15    11     1    1
    16     1     2   ar
    17     2     3   ar
    18     3    23    1
    19    23    24   ar
    20    24    25   ar
    21    25    26   ar
    22    26    27   ar
    23    27    28   ar
    24     3     4   ar
    25     4     5   ar
    26     5    29    1
    27    29    30   ar
    28    30    31   ar
    29    31    32   ar
    30    32    33   ar
    31    33    34   ar
    32     5     6   ar
    33     6    35    1
    34    35    36    3
    35    10    12   ar
    36    12     7   ar
    37    19    13   ar
    38     6     1   ar
    39    28    23   ar
    40    34    29   ar
@<TRIPOS>MOLECULE
*****
 36 40 0 0 0
SMALL
GASTEIGER

@<TRIPOS>ATOM
      1 C         144.6504  141.2177  157.5944 C.ar    1  UNL1        0.1740
      2 N         145.8288  141.8193  156.8878 N.ar    1  UNL1       -0.2259
      3 C         146.3243  141.2150  155.6074 C.ar    1  UNL1        0.0830
      4 C         145.6414  140.0091  155.0336 C.ar    1  UNL1        0.0199
      5 C         144.4629  139.4074  155.7402 C.ar    1  UNL1        0.0141
      6 C         143.9675  140.0116  157.0205 C.ar    1  UNL1        0.1042
      7 C         141.7926  144.7843  158.0325 C.ar    1  UNL1        0.1681
      8 N         141.7612  144.8057  159.5321 N.ar    1  UNL1       -0.1537
      9 N         142.6423  143.6986  160.0301 N.ar    1  UNL1       -0.2061
     10 C         143.2182  142.9929  158.8383 C.ar    1  UNL1        0.1982
     11 N         144.1549  141.8219  158.8747 N.2     1  UNL1       -0.2011
     12 S         142.6931  143.6638  157.6038 S.2     1  UNL1       -0.0250
     13 C         142.9019  143.3572  161.4675 C.ar    1  UNL1        0.0850
     14 C         141.8045  142.7791  162.3110 C.ar    1  UNL1        0.0201
     15 C         142.0641  142.4377  163.7483 C.ar    1  UNL1        0.0129
     16 C         143.4210  142.6744  164.3422 C.ar    1  UNL1        0.0578
     17 CL        143.6806  142.3330  165.7796 Cl      1  UNL1       -0.0822
     18 C         144.5184  143.2525  163.4987 C.ar    1  UNL1        0.0129
     19 C         144.2588  143.5939  162.0613 C.ar    1  UNL1        0.0201
     20 C         141.4405  145.8201  155.6761 C.3     1  UNL1        0.0796
     21 C         141.0533  145.7191  157.1217 C.2     1  UNL1        0.1989
     22 O         139.9269  146.5527  157.6565 O.2     1  UNL1       -0.2891
     23 C         147.5027  141.8167  154.9008 C.ar    1  UNL1        0.0177
     24 C         148.8957  141.4650  155.3324 C.ar    1  UNL1        0.0015
     25 C         150.0741  142.0667  154.6258 C.ar    1  UNL1        0.0000
     26 C         149.8597  143.0200  153.4876 C.ar    1  UNL1        0.0000
     27 C         148.4668  143.3716  153.0561 C.ar    1  UNL1        0.0000
     28 C         147.2883  142.7700  153.7627 C.ar    1  UNL1        0.0015
     29 C         143.7800  138.2014  155.1664 C.ar    1  UNL1        0.0008
     30 C         144.1915  136.8270  155.6043 C.ar    1  UNL1        0.0000
     31 C         143.5086  135.6211  155.0305 C.ar    1  UNL1        0.0000
     32 C         142.4141  135.7895  154.0187 C.ar    1  UNL1        0.0000
     33 C         142.0026  137.1639  153.5807 C.ar    1  UNL1        0.0000
     34 C         142.6856  138.3698  154.1546 C.ar    1  UNL1        0.0000
     35 C         142.7890  139.4099  157.7271 C.1     1  UNL1        0.1035
     36 N         141.6105  138.8083  158.4337 N.1     1  UNL1       -0.1907
@<TRIPOS>BOND
     1    20    21    1
     2    21    22    2
     3    21     7    1
     4     7     8   ar
     5     8     9   ar
     6     9    13    1
     7    13    14   ar
     8    14    15   ar
     9    15    16   ar
    10    16    17    1
    11    16    18   ar
    12    18    19   ar
    13     9    10   ar
    14    10    11    2
    15    11     1    1
    16     1     2   ar
    17     2     3   ar
    18     3    23    1
    19    23    24   ar
    20    24    25   ar
    21    25    26   ar
    22    26    27   ar
    23    27    28   ar
    24     3     4   ar
    25     4     5   ar
    26     5    29    1
    27    29    30   ar
    28    30    31   ar
    29    31    32   ar
    30    32    33   ar
    31    33    34   ar
    32     5     6   ar
    33     6    35    1
    34    35    36    3
    35    10    12   ar
    36    12     7   ar
    37    19    13   ar
    38     6     1   ar
    39    28    23   ar
    40    34    29   ar
@<TRIPOS>MOLECULE
*****
 36 40 0 0 0
SMALL
GASTEIGER

@<TRIPOS>ATOM
      1 C         141.3556  142.6650  157.7440 C.ar    1  UNL1        0.1740
      2 N         141.0238  143.7685  156.7838 N.ar    1  UNL1       -0.2259
      3 C         140.5048  145.0788  157.2973 C.ar    1  UNL1        0.0830
      4 C         140.3176  145.2856  158.7712 C.ar    1  UNL1        0.0199
      5 C         140.6494  144.1821  159.7314 C.ar    1  UNL1        0.0141
      6 C         141.1684  142.8718  159.2179 C.ar    1  UNL1        0.1042
      7 C         145.7129  141.6359  156.7268 C.ar    1  UNL1        0.1681
      8 N         145.4671  140.2198  156.2973 N.ar    1  UNL1       -0.1537
      9 N         143.9994  139.9421  156.4338 N.ar    1  UNL1       -0.2061
     10 C         143.3380  141.1865  156.9476 C.ar    1  UNL1        0.1982
     11 N         141.8746  141.3547  157.2306 N.2     1  UNL1       -0.2011
     12 S         144.3970  142.2333  157.1287 S.2     1  UNL1       -0.0250
     13 C         143.3135  138.6473  156.1128 C.ar    1  UNL1        0.0850
     14 C         143.1301  138.2299  154.6838 C.ar    1  UNL1        0.0201
     15 C         142.4442  136.9351  154.3628 C.ar    1  UNL1        0.0129
     16 C         141.9417  136.0577  155.4709 C.ar    1  UNL1        0.0578
     17 CL        141.2558  134.7629  155.1498 Cl      1  UNL1       -0.0822
     18 C         142.1251  136.4752  156.8999 C.ar    1  UNL1        0.0129
     19 C         142.8110  137.7699  157.2208 C.ar    1  UNL1        0.0201
     20 C         148.0135  142.1309  155.6259 C.3     1  UNL1        0.0796
     21 C         147.0413  142.3322  156.7503 C.2     1  UNL1        0.1989
     22 O         147.3973  143.2297  157.8981 O.2     1  UNL1       -0.2891
     23 C         140.1729  146.1823  156.3371 C.ar    1  UNL1        0.0177
     24 C         139.1912  147.2469  156.7283 C.ar    1  UNL1        0.0015
     25 C         138.8593  148.3504  155.7680 C.ar    1  UNL1        0.0000
     26 C         139.5092  148.3894  154.4166 C.ar    1  UNL1        0.0000
     27 C         140.4909  147.3249  154.0255 C.ar    1  UNL1        0.0000
     28 C         140.8228  146.2213  154.9857 C.ar    1  UNL1        0.0015
     29 C         140.4622  144.3889  161.2053 C.ar    1  UNL1        0.0008
     30 C         141.6118  144.8536  162.0495 C.ar    1  UNL1        0.0000
     31 C         141.4245  145.0604  163.5233 C.ar    1  UNL1        0.0000
     32 C         140.0877  144.8026  164.1530 C.ar    1  UNL1        0.0000
     33 C         138.9382  144.3380  163.3088 C.ar    1  UNL1        0.0000
     34 C         139.1254  144.1311  161.8350 C.ar    1  UNL1        0.0000
     35 C         141.5003  141.7683  160.1783 C.1     1  UNL1        0.1035
     36 N         141.8321  140.6648  161.1386 N.1     1  UNL1       -0.1907
@<TRIPOS>BOND
     1    20    21    1
     2    21    22    2
     3    21     7    1
     4     7     8   ar
     5     8     9   ar
     6     9    13    1
     7    13    14   ar
     8    14    15   ar
     9    15    16   ar
    10    16    17    1
    11    16    18   ar
    12    18    19   ar
    13     9    10   ar
    14    10    11    2
    15    11     1    1
    16     1     2   ar
    17     2     3   ar
    18     3    23    1
    19    23    24   ar
    20    24    25   ar
    21    25    26   ar
    22    26    27   ar
    23    27    28   ar
    24     3     4   ar
    25     4     5   ar
    26     5    29    1
    27    29    30   ar
    28    30    31   ar
    29    31    32   ar
    30    32    33   ar
    31    33    34   ar
    32     5     6   ar
    33     6    35    1
    34    35    36    3
    35    10    12   ar
    36    12     7   ar
    37    19    13   ar
    38     6     1   ar
    39    28    23   ar
    40    34    29   ar
@<TRIPOS>MOLECULE
*****
 36 40 0 0 0
SMALL
GASTEIGER

@<TRIPOS>ATOM
      1 C         141.6204  144.9362  157.8354 C.ar    1  UNL1        0.1740
      2 N         142.5760  144.0568  157.0849 N.ar    1  UNL1       -0.2259
      3 C         143.3764  143.0215  157.8181 C.ar    1  UNL1        0.0830
      4 C         143.2211  142.8656  159.3018 C.ar    1  UNL1        0.0199
      5 C         142.2655  143.7450  160.0524 C.ar    1  UNL1        0.0141
      6 C         141.4652  144.7802  159.3193 C.ar    1  UNL1        0.1042
      7 C         137.7614  144.2508  155.4442 C.ar    1  UNL1        0.1681
      8 N         137.5561  145.6756  155.0227 N.ar    1  UNL1       -0.1537
      9 N         138.6769  146.4937  155.5926 N.ar    1  UNL1       -0.2061
     10 C         139.5749  145.5744  156.3662 C.ar    1  UNL1        0.1982
     11 N         140.8200  145.9715  157.1024 N.2     1  UNL1       -0.2011
     12 S         139.0091  144.1882  156.2745 S.2     1  UNL1       -0.0250
     13 C         138.8664  147.9716  155.4192 C.ar    1  UNL1        0.0850
     14 C         139.5772  148.4996  154.2085 C.ar    1  UNL1        0.0201
     15 C         139.7667  149.9775  154.0352 C.ar    1  UNL1        0.0129
     16 C         139.2453  150.9272  155.0726 C.ar    1  UNL1        0.0578
     17 CL        139.4348  152.4051  154.8992 Cl      1  UNL1       -0.0822
     18 C         138.5345  150.3991  156.2833 C.ar    1  UNL1        0.0129
     19 C         138.3450  148.9213  156.4566 C.ar    1  UNL1        0.0201
     20 C         136.3510  142.9413  153.6988 C.3     1  UNL1        0.0796
     21 C         136.8747  143.0920  155.0963 C.2     1  UNL1        0.1989
     22 O         136.5118  142.0838  156.1460 O.2     1  UNL1       -0.2891
     23 C         144.3320  142.1421  157.0675 C.ar    1  UNL1        0.0177
     24 C         145.7555  142.5743  156.8747 C.ar    1  UNL1        0.0015
     25 C         146.7111  141.6948  156.1242 C.ar    1  UNL1        0.0000
     26 C         146.2434  140.3833  155.5663 C.ar    1  UNL1        0.0000
     27 C         144.8200  139.9512  155.7591 C.ar    1  UNL1        0.0000
     28 C         143.8643  140.8306  156.5097 C.ar    1  UNL1        0.0015
     29 C         142.1103  143.5891  161.5362 C.ar    1  UNL1        0.0008
     30 C         141.1073  142.6195  162.0877 C.ar    1  UNL1        0.0000
     31 C         140.9522  142.4636  163.5715 C.ar    1  UNL1        0.0000
     32 C         141.8000  143.2773  164.5038 C.ar    1  UNL1        0.0000
     33 C         142.8029  144.2468  163.9523 C.ar    1  UNL1        0.0000
     34 C         142.9581  144.4027  162.4685 C.ar    1  UNL1        0.0000
     35 C         140.5095  145.6597  160.0699 C.1     1  UNL1        0.1035
     36 N         139.5538  146.5391  160.8205 N.1     1  UNL1       -0.1907
@<TRIPOS>BOND
     1    20    21    1
     2    21    22    2
     3    21     7    1
     4     7     8   ar
     5     8     9   ar
     6     9    13    1
     7    13    14   ar
     8    14    15   ar
     9    15    16   ar
    10    16    17    1
    11    16    18   ar
    12    18    19   ar
    13     9    10   ar
    14    10    11    2
    15    11     1    1
    16     1     2   ar
    17     2     3   ar
    18     3    23    1
    19    23    24   ar
    20    24    25   ar
    21    25    26   ar
    22    26    27   ar
    23    27    28   ar
    24     3     4   ar
    25     4     5   ar
    26     5    29    1
    27    29    30   ar
    28    30    31   ar
    29    31    32   ar
    30    32    33   ar
    31    33    34   ar
    32     5     6   ar
    33     6    35    1
    34    35    36    3
    35    10    12   ar
    36    12     7   ar
    37    19    13   ar
    38     6     1   ar
    39    28    23   ar
    40    34    29   ar
@<TRIPOS>MOLECULE
*****
 36 40 0 0 0
SMALL
GASTEIGER

@<TRIPOS>ATOM
      1 C         139.7172  138.5321  157.3994 C.ar    1  UNL1        0.1740
      2 N         138.8420  139.1215  156.3333 N.ar    1  UNL1       -0.2259
      3 C         137.9042  140.2433  156.6680 C.ar    1  UNL1        0.0830
      4 C         137.8416  140.7757  158.0690 C.ar    1  UNL1        0.0199
      5 C         138.7168  140.1864  159.1351 C.ar    1  UNL1        0.0141
      6 C         139.6545  139.0646  158.8004 C.ar    1  UNL1        0.1042
      7 C         144.0268  138.9100  155.8617 C.ar    1  UNL1        0.1681
      8 N         144.3105  137.4406  155.7604 N.ar    1  UNL1       -0.1537
      9 N         143.0820  136.6999  156.1988 N.ar    1  UNL1       -0.2061
     10 C         142.0389  137.7116  156.5710 C.ar    1  UNL1        0.1982
     11 N         140.6550  137.4103  157.0648 N.2     1  UNL1       -0.2011
     12 S         142.6228  139.0775  156.3627 S.2     1  UNL1       -0.0250
     13 C         142.9242  135.2092  156.2551 C.ar    1  UNL1        0.0850
     14 C         143.7332  134.4057  157.2296 C.ar    1  UNL1        0.0201
     15 C         143.5754  132.9151  157.2859 C.ar    1  UNL1        0.0129
     16 C         142.6087  132.2281  156.3675 C.ar    1  UNL1        0.0578
     17 CL        142.4509  130.7374  156.4238 Cl      1  UNL1       -0.0822
     18 C         141.7997  133.0316  155.3930 C.ar    1  UNL1        0.0129
     19 C         141.9575  134.5222  155.3367 C.ar    1  UNL1        0.0201
     20 C         145.3346  140.2883  154.0897 C.3     1  UNL1        0.0796
     21 C         144.9796  140.0174  155.5217 C.2     1  UNL1        0.1989
     22 O         145.5774  140.8541  156.6138 O.2     1  UNL1       -0.2891
     23 C         137.0291  140.8327  155.6019 C.ar    1  UNL1        0.0177
     24 C         136.0173  139.9740  154.9026 C.ar    1  UNL1        0.0015
     25 C         135.1422  140.5634  153.8364 C.ar    1  UNL1        0.0000
     26 C         135.2787  142.0114  153.4695 C.ar    1  UNL1        0.0000
     27 C         136.2904  142.8701  154.1689 C.ar    1  UNL1        0.0000
     28 C         137.1657  142.2807  155.2351 C.ar    1  UNL1        0.0015
     29 C         138.6541  140.7189  160.5361 C.ar    1  UNL1        0.0008
     30 C         137.6977  140.1197  161.5242 C.ar    1  UNL1        0.0000
     31 C         137.6351  140.6522  162.9251 C.ar    1  UNL1        0.0000
     32 C         138.5288  141.7839  163.3378 C.ar    1  UNL1        0.0000
     33 C         139.4852  142.3831  162.3497 C.ar    1  UNL1        0.0000
     34 C         139.5478  141.8506  160.9488 C.ar    1  UNL1        0.0000
     35 C         140.5297  138.4752  159.8666 C.1     1  UNL1        0.1035
     36 N         141.4048  137.8858  160.9328 N.1     1  UNL1       -0.1907
@<TRIPOS>BOND
     1    20    21    1
     2    21    22    2
     3    21     7    1
     4     7     8   ar
     5     8     9   ar
     6     9    13    1
     7    13    14   ar
     8    14    15   ar
     9    15    16   ar
    10    16    17    1
    11    16    18   ar
    12    18    19   ar
    13     9    10   ar
    14    10    11    2
    15    11     1    1
    16     1     2   ar
    17     2     3   ar
    18     3    23    1
    19    23    24   ar
    20    24    25   ar
    21    25    26   ar
    22    26    27   ar
    23    27    28   ar
    24     3     4   ar
    25     4     5   ar
    26     5    29    1
    27    29    30   ar
    28    30    31   ar
    29    31    32   ar
    30    32    33   ar
    31    33    34   ar
    32     5     6   ar
    33     6    35    1
    34    35    36    3
    35    10    12   ar
    36    12     7   ar
    37    19    13   ar
    38     6     1   ar
    39    28    23   ar
    40    34    29   ar
@<TRIPOS>MOLECULE
*****
 36 40 0 0 0
SMALL
GASTEIGER

@<TRIPOS>ATOM
      1 C         140.1825  140.1723  159.5710 C.ar    1  UNL1        0.1740
      2 N         139.3284  141.1282  158.7922 N.ar    1  UNL1       -0.2259
      3 C         139.4998  141.2481  157.3068 C.ar    1  UNL1        0.0830
      4 C         140.5255  140.4121  156.6003 C.ar    1  UNL1        0.0199
      5 C         141.3797  139.4562  157.3792 C.ar    1  UNL1        0.0141
      6 C         141.2082  139.3363  158.8644 C.ar    1  UNL1        0.1042
      7 C         142.0794  142.8435  162.7876 C.ar    1  UNL1        0.1681
      8 N         141.4793  142.1491  163.9741 N.ar    1  UNL1       -0.1537
      9 N         140.6315  141.0190  163.4699 N.ar    1  UNL1       -0.2061
     10 C         140.7076  141.0150  161.9719 C.ar    1  UNL1        0.1982
     11 N         140.0112  140.0524  161.0563 N.2     1  UNL1       -0.2011
     12 S         141.6024  142.1426  161.5502 S.2     1  UNL1       -0.0250
     13 C         139.8456  140.0611  164.3155 C.ar    1  UNL1        0.0850
     14 C         138.8339  140.5801  165.2937 C.ar    1  UNL1        0.0201
     15 C         138.0481  139.6223  166.1392 C.ar    1  UNL1        0.0129
     16 C         138.2739  138.1453  166.0064 C.ar    1  UNL1        0.0578
     17 CL        137.4880  137.1874  166.8520 Cl      1  UNL1       -0.0822
     18 C         139.2856  137.6263  165.0282 C.ar    1  UNL1        0.0129
     19 C         140.0715  138.5841  164.1827 C.ar    1  UNL1        0.0201
     20 C         142.6553  145.2094  163.6938 C.3     1  UNL1        0.0796
     21 C         142.9955  144.0305  162.8310 C.2     1  UNL1        0.1989
     22 O         144.2518  144.0385  162.0114 O.2     1  UNL1       -0.2891
     23 C         138.6456  142.2040  156.5280 C.ar    1  UNL1        0.0177
     24 C         137.2742  141.7916  156.0815 C.ar    1  UNL1        0.0015
     25 C         136.4200  142.7475  155.3027 C.ar    1  UNL1        0.0000
     26 C         136.9371  144.1157  154.9702 C.ar    1  UNL1        0.0000
     27 C         138.3085  144.5281  155.4166 C.ar    1  UNL1        0.0000
     28 C         139.1628  143.5722  156.1955 C.ar    1  UNL1        0.0015
     29 C         142.4053  138.6202  156.6726 C.ar    1  UNL1        0.0008
     30 C         142.2530  137.1288  156.6237 C.ar    1  UNL1        0.0000
     31 C         143.2787  136.2929  155.9172 C.ar    1  UNL1        0.0000
     32 C         144.4567  136.9484  155.2594 C.ar    1  UNL1        0.0000
     33 C         144.6090  138.4399  155.3083 C.ar    1  UNL1        0.0000
     34 C         143.5833  139.2758  156.0148 C.ar    1  UNL1        0.0000
     35 C         142.0625  138.3804  159.6433 C.1     1  UNL1        0.1035
     36 N         142.9167  137.4245  160.4221 N.1     1  UNL1       -0.1907
@<TRIPOS>BOND
     1    20    21    1
     2    21    22    2
     3    21     7    1
     4     7     8   ar
     5     8     9   ar
     6     9    13    1
     7    13    14   ar
     8    14    15   ar
     9    15    16   ar
    10    16    17    1
    11    16    18   ar
    12    18    19   ar
    13     9    10   ar
    14    10    11    2
    15    11     1    1
    16     1     2   ar
    17     2     3   ar
    18     3    23    1
    19    23    24   ar
    20    24    25   ar
    21    25    26   ar
    22    26    27   ar
    23    27    28   ar
    24     3     4   ar
    25     4     5   ar
    26     5    29    1
    27    29    30   ar
    28    30    31   ar
    29    31    32   ar
    30    32    33   ar
    31    33    34   ar
    32     5     6   ar
    33     6    35    1
    34    35    36    3
    35    10    12   ar
    36    12     7   ar
    37    19    13   ar
    38     6     1   ar
    39    28    23   ar
    40    34    29   ar
@<TRIPOS>MOLECULE
*****
 36 40 0 0 0
SMALL
GASTEIGER

@<TRIPOS>ATOM
      1 C         143.3515  139.1445  158.4158 C.ar    1  UNL1        0.1740
      2 N         143.0017  137.9111  157.6372 N.ar    1  UNL1       -0.2259
      3 C         143.3522  137.8184  156.1817 C.ar    1  UNL1        0.0830
      4 C         144.0525  138.9592  155.5047 C.ar    1  UNL1        0.0199
      5 C         144.4023  140.1926  156.2833 C.ar    1  UNL1        0.0141
      6 C         144.0519  140.2853  157.7388 C.ar    1  UNL1        0.1042
      7 C         139.7709  141.3555  160.2518 C.ar    1  UNL1        0.1681
      8 N         140.0673  141.0191  161.6832 N.ar    1  UNL1       -0.1537
      9 N         141.3134  140.1847  161.7149 N.ar    1  UNL1       -0.2061
     10 C         141.7872  140.0054  160.3031 C.ar    1  UNL1        0.1982
     11 N         143.0011  139.2373  159.8713 N.2     1  UNL1       -0.2011
     12 S         140.8339  140.7289  159.3988 S.2     1  UNL1       -0.0250
     13 C         141.9703  139.6274  162.9430 C.ar    1  UNL1        0.0850
     14 C         141.2942  138.5434  163.7289 C.ar    1  UNL1        0.0201
     15 C         141.9512  137.9863  164.9568 C.ar    1  UNL1        0.0129
     16 C         143.2842  138.5131  165.3989 C.ar    1  UNL1        0.0578
     17 CL        143.9412  137.9558  166.6269 Cl      1  UNL1       -0.0822
     18 C         143.9603  139.5971  164.6129 C.ar    1  UNL1        0.0129
     19 C         143.3034  140.1543  163.3850 C.ar    1  UNL1        0.0201
     20 C         138.3446  142.2828  158.2882 C.3     1  UNL1        0.0796
     21 C         138.6147  142.1746  159.7597 C.2     1  UNL1        0.1989
     22 O         137.7285  142.8854  160.7392 O.2     1  UNL1       -0.2891
     23 C         143.0024  136.5850  155.4031 C.ar    1  UNL1        0.0177
     24 C         143.3891  135.2332  155.9259 C.ar    1  UNL1        0.0015
     25 C         143.0392  133.9998  155.1473 C.ar    1  UNL1        0.0000
     26 C         142.3027  134.1180  153.8459 C.ar    1  UNL1        0.0000
     27 C         141.9161  135.4697  153.3231 C.ar    1  UNL1        0.0000
     28 C         142.2659  136.7033  154.1017 C.ar    1  UNL1        0.0015
     29 C         145.1026  141.3334  155.6063 C.ar    1  UNL1        0.0008
     30 C         146.5974  141.4404  155.6710 C.ar    1  UNL1        0.0000
     31 C         147.2977  142.5811  154.9940 C.ar    1  UNL1        0.0000
     32 C         146.5031  143.6148  154.2523 C.ar    1  UNL1        0.0000
     33 C         145.0083  143.5078  154.1876 C.ar    1  UNL1        0.0000
     34 C         144.3081  142.3671  154.8646 C.ar    1  UNL1        0.0000
     35 C         144.4017  141.5188  158.5174 C.1     1  UNL1        0.1035
     36 N         144.7515  142.7522  159.2960 N.1     1  UNL1       -0.1907
@<TRIPOS>BOND
     1    20    21    1
     2    21    22    2
     3    21     7    1
     4     7     8   ar
     5     8     9   ar
     6     9    13    1
     7    13    14   ar
     8    14    15   ar
     9    15    16   ar
    10    16    17    1
    11    16    18   ar
    12    18    19   ar
    13     9    10   ar
    14    10    11    2
    15    11     1    1
    16     1     2   ar
    17     2     3   ar
    18     3    23    1
    19    23    24   ar
    20    24    25   ar
    21    25    26   ar
    22    26    27   ar
    23    27    28   ar
    24     3     4   ar
    25     4     5   ar
    26     5    29    1
    27    29    30   ar
    28    30    31   ar
    29    31    32   ar
    30    32    33   ar
    31    33    34   ar
    32     5     6   ar
    33     6    35    1
    34    35    36    3
    35    10    12   ar
    36    12     7   ar
    37    19    13   ar
    38     6     1   ar
    39    28    23   ar
    40    34    29   ar
@<TRIPOS>MOLECULE
*****
 36 40 0 0 0
SMALL
GASTEIGER

@<TRIPOS>ATOM
      1 C         139.4810  138.7159  157.0252 C.ar    1  UNL1        0.1740
      2 N         139.3005  139.2309  158.4224 N.ar    1  UNL1       -0.2259
      3 C         138.3418  140.3531  158.6901 C.ar    1  UNL1        0.0830
      4 C         137.5637  140.9602  157.5606 C.ar    1  UNL1        0.0199
      5 C         137.7442  140.4452  156.1634 C.ar    1  UNL1        0.0141
      6 C         138.7028  139.3231  155.8957 C.ar    1  UNL1        0.1042
      7 C         143.9412  139.0881  156.0012 C.ar    1  UNL1        0.1681
      8 N         144.2200  137.6194  155.8779 N.ar    1  UNL1       -0.1537
      9 N         142.9423  136.8809  156.1462 N.ar    1  UNL1       -0.2061
     10 C         141.8737  137.8931  156.4353 C.ar    1  UNL1        0.1982
     11 N         140.4397  137.5937  156.7574 N.2     1  UNL1       -0.2011
     12 S         142.4910  139.2572  156.3456 S.2     1  UNL1       -0.0250
     13 C         142.7644  135.3915  156.1286 C.ar    1  UNL1        0.0850
     14 C         143.4587  134.5411  157.1507 C.ar    1  UNL1        0.0201
     15 C         143.2808  133.0518  157.1330 C.ar    1  UNL1        0.0129
     16 C         142.4086  132.4129  156.0932 C.ar    1  UNL1        0.0578
     17 CL        142.2308  130.9236  156.0756 Cl      1  UNL1       -0.0822
     18 C         141.7144  133.2634  155.0711 C.ar    1  UNL1        0.0129
     19 C         141.8923  134.7526  155.0888 C.ar    1  UNL1        0.0201
     20 C         145.4282  140.5347  154.4372 C.3     1  UNL1        0.0796
     21 C         144.9374  140.1936  155.8130 C.2     1  UNL1        0.1989
     22 O         145.4428  140.9579  157.0006 O.2     1  UNL1       -0.2891
     23 C         138.1613  140.8681  160.0873 C.ar    1  UNL1        0.0177
     24 C         137.7916  139.9238  161.1927 C.ar    1  UNL1        0.0015
     25 C         137.6110  140.4388  162.5899 C.ar    1  UNL1        0.0000
     26 C         137.8001  141.8980  162.8817 C.ar    1  UNL1        0.0000
     27 C         138.1698  142.8421  161.7763 C.ar    1  UNL1        0.0000
     28 C         138.3504  142.3272  160.3790 C.ar    1  UNL1        0.0015
     29 C         136.9660  141.0525  155.0338 C.ar    1  UNL1        0.0008
     30 C         135.6487  140.4612  154.6274 C.ar    1  UNL1        0.0000
     31 C         134.8706  141.0685  153.4979 C.ar    1  UNL1        0.0000
     32 C         135.4097  142.2670  152.7749 C.ar    1  UNL1        0.0000
     33 C         136.7270  142.8583  153.1813 C.ar    1  UNL1        0.0000
     34 C         137.5052  142.2510  154.3108 C.ar    1  UNL1        0.0000
     35 C         138.8834  138.8081  154.4984 C.1     1  UNL1        0.1035
     36 N         139.0639  138.2931  153.1012 N.1     1  UNL1       -0.1907
@<TRIPOS>BOND
     1    20    21    1
     2    21    22    2
     3    21     7    1
     4     7     8   ar
     5     8     9   ar
     6     9    13    1
     7    13    14   ar
     8    14    15   ar
     9    15    16   ar
    10    16    17    1
    11    16    18   ar
    12    18    19   ar
    13     9    10   ar
    14    10    11    2
    15    11     1    1
    16     1     2   ar
    17     2     3   ar
    18     3    23    1
    19    23    24   ar
    20    24    25   ar
    21    25    26   ar
    22    26    27   ar
    23    27    28   ar
    24     3     4   ar
    25     4     5   ar
    26     5    29    1
    27    29    30   ar
    28    30    31   ar
    29    31    32   ar
    30    32    33   ar
    31    33    34   ar
    32     5     6   ar
    33     6    35    1
    34    35    36    3
    35    10    12   ar
    36    12     7   ar
    37    19    13   ar
    38     6     1   ar
    39    28    23   ar
    40    34    29   ar
