@<TRIPOS>MOLECULE
*****
 25 25 0 0 0
SMALL
GASTEIGER

@<TRIPOS>ATOM
      1 C         138.4319  139.1131  165.6291 C.ar    1  UNL1       -0.0178
      2 C         139.0838  137.9958  164.8698 C.ar    1  UNL1       -0.0040
      3 C         139.1048  138.0202  163.3702 C.ar    1  UNL1        0.0028
      4 C         138.4738  139.1620  162.6298 C.ar    1  UNL1        0.0369
      5 C         137.8218  140.2793  163.3891 C.ar    1  UNL1        0.1382
      6 C         137.8009  140.2548  164.8887 C.ar    1  UNL1        0.0327
      7 C         138.4109  139.0886  167.1288 C.3     1  UNL1        0.0435
      8 C         139.4146  139.8876  167.9060 C.3     1  UNL1        0.0737
      9 N         139.2245  140.1021  169.3784 N.3     1  UNL1       -0.2895
     10 H         138.8140  141.0292  169.4903 H       1  UNL1        0.1237
     11 C         140.4028  140.0357  170.3042 C.3     1  UNL1        0.1552
     12 C         142.9271  143.0907  170.5166 C.3     1  UNL1        0.1149
     13 N         142.2676  141.8268  170.0501 N.am    1  UNL1       -0.2749
     14 C         142.8135  141.0900  168.8629 C.3     1  UNL1        0.1149
     15 C         141.0623  141.2996  170.7707 C.2     1  UNL1        0.2419
     16 O         140.5164  142.0364  171.9579 O.2     1  UNL1       -0.2734
     17 O         137.1908  141.4211  162.6487 O.3     1  UNL1       -0.4755
     18 C         138.0064  142.6304  162.2990 C.3     1  UNL1        0.2054
     19 C         137.8131  143.9103  163.0571 C.3     1  UNL1        0.0476
     20 C         138.9314  144.9060  163.1454 C.3     1  UNL1        0.0126
     21 C         139.9754  144.7685  164.2136 C.3     1  UNL1        0.1034
     22 C         139.8122  143.7406  165.2939 C.3     1  UNL1        0.3978
     23 F         139.6491  142.7128  166.3741 F       1  UNL1       -0.1700
     24 F         138.9662  144.6992  166.0783 F       1  UNL1       -0.1700
     25 F         140.6582  142.7820  164.5095 F       1  UNL1       -0.1700
@<TRIPOS>BOND
     1    12    13    1
     2    13    14    1
     3    13    15   am
     4    15    16    2
     5    15    11    1
     6    11     9    1
     7     9     8    1
     8     8     7    1
     9     7     1    1
    10     1     2   ar
    11     2     3   ar
    12     3     4   ar
    13     4     5   ar
    14     5    17    1
    15    17    18    1
    16    18    19    1
    17    19    20    1
    18    20    21    1
    19    21    22    1
    20    22    23    1
    21    22    24    1
    22    22    25    1
    23     5     6   ar
    24     6     1   ar
    25     9    10    1
@<TRIPOS>MOLECULE
*****
 25 25 0 0 0
SMALL
GASTEIGER

@<TRIPOS>ATOM
      1 C         140.4921  142.4955  165.2764 C.ar    1  UNL1       -0.0178
      2 C         140.3664  142.2987  166.7580 C.ar    1  UNL1       -0.0040
      3 C         141.0575  141.1452  167.4228 C.ar    1  UNL1        0.0028
      4 C         141.8744  140.1886  166.6058 C.ar    1  UNL1        0.0369
      5 C         142.0002  140.3854  165.1242 C.ar    1  UNL1        0.1382
      6 C         141.3090  141.5388  164.4594 C.ar    1  UNL1        0.0327
      7 C         139.8010  143.6490  164.6116 C.3     1  UNL1        0.0435
      8 C         140.4180  144.3016  163.4102 C.3     1  UNL1        0.0737
      9 N         141.2953  145.5066  163.5789 N.3     1  UNL1       -0.2895
     10 H         141.2081  146.0563  162.7241 H       1  UNL1        0.1237
     11 C         142.7632  145.3355  163.8359 C.3     1  UNL1        0.1552
     12 C         145.1191  142.2114  163.1729 C.3     1  UNL1        0.1149
     13 N         144.3512  143.2801  163.8929 N.am    1  UNL1       -0.2749
     14 C         144.4035  143.3619  165.3898 C.3     1  UNL1        0.1149
     15 C         143.5311  144.2669  163.1160 C.2     1  UNL1        0.2419
     16 O         143.4788  144.1851  161.6191 O.2     1  UNL1       -0.2734
     17 O         142.8171  139.4287  164.3071 O.3     1  UNL1       -0.4755
     18 C         142.1470  138.2985  163.5835 C.3     1  UNL1        0.2054
     19 C         141.2252  137.3755  164.3241 C.3     1  UNL1        0.0476
     20 C         139.7395  137.5401  164.1991 C.3     1  UNL1        0.0126
     21 C         138.9426  138.0611  165.3582 C.3     1  UNL1        0.1034
     22 C         138.3484  139.4373  165.3018 C.3     1  UNL1        0.3978
     23 F         137.7542  140.8133  165.2453 F       1  UNL1       -0.1700
     24 F         138.0559  139.3713  166.7715 F       1  UNL1       -0.1700
     25 F         138.6409  139.5032  163.8321 F       1  UNL1       -0.1700
@<TRIPOS>BOND
     1    12    13    1
     2    13    14    1
     3    13    15   am
     4    15    16    2
     5    15    11    1
     6    11     9    1
     7     9     8    1
     8     8     7    1
     9     7     1    1
    10     1     2   ar
    11     2     3   ar
    12     3     4   ar
    13     4     5   ar
    14     5    17    1
    15    17    18    1
    16    18    19    1
    17    19    20    1
    18    20    21    1
    19    21    22    1
    20    22    23    1
    21    22    24    1
    22    22    25    1
    23     5     6   ar
    24     6     1   ar
    25     9    10    1
@<TRIPOS>MOLECULE
*****
 25 25 0 0 0
SMALL
GASTEIGER

@<TRIPOS>ATOM
      1 C         140.2475  140.6513  164.2518 C.ar    1  UNL1       -0.0178
      2 C         140.1347  140.0024  165.5995 C.ar    1  UNL1       -0.0040
      3 C         141.0111  140.4594  166.7277 C.ar    1  UNL1        0.0028
      4 C         142.0004  141.5654  166.5083 C.ar    1  UNL1        0.0369
      5 C         142.1132  142.2143  165.1607 C.ar    1  UNL1        0.1382
      6 C         141.2367  141.7573  164.0325 C.ar    1  UNL1        0.0327
      7 C         139.3710  140.1942  163.1236 C.3     1  UNL1        0.0435
      8 C         137.8918  140.0574  163.3310 C.3     1  UNL1        0.0737
      9 N         136.9828  141.2133  163.0352 N.3     1  UNL1       -0.2895
     10 H         136.9041  141.2737  162.0201 H       1  UNL1        0.1237
     11 C         137.3331  142.5873  163.5249 C.3     1  UNL1        0.1552
     12 C         139.6467  145.5822  162.3300 C.3     1  UNL1        0.1149
     13 N         138.9060  144.6332  163.2249 N.am    1  UNL1       -0.2749
     14 C         138.9974  144.7814  164.7148 C.3     1  UNL1        0.1149
     15 C         138.0738  143.5362  162.6300 C.2     1  UNL1        0.2419
     16 O         137.9824  143.3880  161.1401 O.2     1  UNL1       -0.2734
     17 O         143.1025  143.3203  164.9413 O.3     1  UNL1       -0.4755
     18 C         144.5704  143.0154  164.8950 C.3     1  UNL1        0.2054
     19 C         145.1153  142.1113  163.8292 C.3     1  UNL1        0.0476
     20 C         145.2755  140.6447  164.0996 C.3     1  UNL1        0.0126
     21 C         144.3296  139.6599  163.4788 C.3     1  UNL1        0.1034
     22 C         143.4787  138.7850  164.3509 C.3     1  UNL1        0.3978
     23 F         142.6278  137.9102  165.2230 F       1  UNL1       -0.1700
     24 F         142.7076  138.3339  163.1460 F       1  UNL1       -0.1700
     25 F         144.2498  139.2362  165.5558 F       1  UNL1       -0.1700
@<TRIPOS>BOND
     1    12    13    1
     2    13    14    1
     3    13    15   am
     4    15    16    2
     5    15    11    1
     6    11     9    1
     7     9     8    1
     8     8     7    1
     9     7     1    1
    10     1     2   ar
    11     2     3   ar
    12     3     4   ar
    13     4     5   ar
    14     5    17    1
    15    17    18    1
    16    18    19    1
    17    19    20    1
    18    20    21    1
    19    21    22    1
    20    22    23    1
    21    22    24    1
    22    22    25    1
    23     5     6   ar
    24     6     1   ar
    25     9    10    1
@<TRIPOS>MOLECULE
*****
 25 25 0 0 0
SMALL
GASTEIGER

@<TRIPOS>ATOM
      1 C         143.7982  139.9877  164.6716 C.ar    1  UNL1       -0.0178
      2 C         143.9819  138.8567  165.6397 C.ar    1  UNL1       -0.0040
      3 C         143.0193  138.6784  166.7762 C.ar    1  UNL1        0.0028
      4 C         141.8730  139.6311  166.9446 C.ar    1  UNL1        0.0369
      5 C         141.6894  140.7621  165.9766 C.ar    1  UNL1        0.1382
      6 C         142.6520  140.9404  164.8401 C.ar    1  UNL1        0.0327
      7 C         144.7608  140.1660  163.5352 C.3     1  UNL1        0.0435
      8 C         145.7066  141.3302  163.5290 C.3     1  UNL1        0.0737
      9 N         145.8057  142.2096  162.3179 N.3     1  UNL1       -0.2895
     10 H         146.2170  143.0905  162.6265 H       1  UNL1        0.1237
     11 C         144.5708  142.5572  161.5404 C.3     1  UNL1        0.1552
     12 C         141.2178  144.4240  162.5513 C.3     1  UNL1        0.1149
     13 N         142.1541  143.3697  162.0397 N.am    1  UNL1       -0.2749
     14 C         141.6101  142.0736  161.5160 C.3     1  UNL1        0.1149
     15 C         143.6344  143.6115  162.0519 C.2     1  UNL1        0.2419
     16 O         144.1785  144.9076  162.5757 O.2     1  UNL1       -0.2734
     17 O         140.5430  141.7149  166.1450 O.3     1  UNL1       -0.4755
     18 C         139.5526  141.9004  165.0339 C.3     1  UNL1        0.2054
     19 C         138.3390  141.0220  164.9566 C.3     1  UNL1        0.0476
     20 C         138.4784  139.5357  165.1027 C.3     1  UNL1        0.0126
     21 C         139.1599  138.7375  164.0311 C.3     1  UNL1        0.1034
     22 C         140.1589  137.6820  164.4029 C.3     1  UNL1        0.3978
     23 F         141.1579  136.6267  164.7746 F       1  UNL1       -0.1700
     24 F         139.1585  137.0628  165.3334 F       1  UNL1       -0.1700
     25 F         141.1592  138.3012  163.4724 F       1  UNL1       -0.1700
@<TRIPOS>BOND
     1    12    13    1
     2    13    14    1
     3    13    15   am
     4    15    16    2
     5    15    11    1
     6    11     9    1
     7     9     8    1
     8     8     7    1
     9     7     1    1
    10     1     2   ar
    11     2     3   ar
    12     3     4   ar
    13     4     5   ar
    14     5    17    1
    15    17    18    1
    16    18    19    1
    17    19    20    1
    18    20    21    1
    19    21    22    1
    20    22    23    1
    21    22    24    1
    22    22    25    1
    23     5     6   ar
    24     6     1   ar
    25     9    10    1
@<TRIPOS>MOLECULE
*****
 25 25 0 0 0
SMALL
GASTEIGER

@<TRIPOS>ATOM
      1 C         144.1841  142.2864  164.5886 C.ar    1  UNL1       -0.0178
      2 C         145.0423  141.3937  163.7422 C.ar    1  UNL1       -0.0040
      3 C         145.0452  139.9124  163.9783 C.ar    1  UNL1        0.0028
      4 C         144.1899  139.3238  165.0609 C.ar    1  UNL1        0.0369
      5 C         143.3316  140.2166  165.9073 C.ar    1  UNL1        0.1382
      6 C         143.3288  141.6979  165.6711 C.ar    1  UNL1        0.0327
      7 C         144.1812  143.7677  164.3524 C.3     1  UNL1        0.0435
      8 C         144.1983  144.3039  162.9517 C.3     1  UNL1        0.0737
      9 N         143.0407  145.1111  162.4434 N.3     1  UNL1       -0.2895
     10 H         142.5829  145.5161  163.2600 H       1  UNL1        0.1237
     11 C         141.9678  144.4526  161.6277 C.3     1  UNL1        0.1552
     12 C         138.2348  144.5490  162.9714 C.3     1  UNL1        0.1149
     13 N         139.5184  144.9722  162.3206 N.am    1  UNL1       -0.2749
     14 C         139.6360  146.3382  161.7122 C.3     1  UNL1        0.1149
     15 C         140.6843  144.0294  162.2784 C.2     1  UNL1        0.2419
     16 O         140.5666  142.6633  162.8868 O.2     1  UNL1       -0.2734
     17 O         142.4763  139.6281  166.9900 O.3     1  UNL1       -0.4755
     18 C         141.4697  140.4845  167.6994 C.3     1  UNL1        0.2054
     19 C         140.0032  140.2424  167.4966 C.3     1  UNL1        0.0476
     20 C         139.5025  139.7325  166.1779 C.3     1  UNL1        0.0126
     21 C         138.1063  139.1968  166.0621 C.3     1  UNL1        0.1034
     22 C         137.7686  137.8526  166.6361 C.3     1  UNL1        0.3978
     23 F         137.4310  136.5086  167.2100 F       1  UNL1       -0.1700
     24 F         138.4566  137.1868  165.4814 F       1  UNL1       -0.1700
     25 F         137.0807  138.5185  167.7908 F       1  UNL1       -0.1700
@<TRIPOS>BOND
     1    12    13    1
     2    13    14    1
     3    13    15   am
     4    15    16    2
     5    15    11    1
     6    11     9    1
     7     9     8    1
     8     8     7    1
     9     7     1    1
    10     1     2   ar
    11     2     3   ar
    12     3     4   ar
    13     4     5   ar
    14     5    17    1
    15    17    18    1
    16    18    19    1
    17    19    20    1
    18    20    21    1
    19    21    22    1
    20    22    23    1
    21    22    24    1
    22    22    25    1
    23     5     6   ar
    24     6     1   ar
    25     9    10    1
@<TRIPOS>MOLECULE
*****
 25 25 0 0 0
SMALL
GASTEIGER

@<TRIPOS>ATOM
      1 C         144.2053  141.9928  164.6345 C.ar    1  UNL1       -0.0178
      2 C         145.0619  140.9525  163.9758 C.ar    1  UNL1       -0.0040
      3 C         144.9090  139.5081  164.3503 C.ar    1  UNL1        0.0028
      4 C         143.8996  139.1040  165.3836 C.ar    1  UNL1        0.0369
      5 C         143.0430  140.1442  166.0423 C.ar    1  UNL1        0.1382
      6 C         143.1958  141.5887  165.6678 C.ar    1  UNL1        0.0327
      7 C         144.3581  143.4372  164.2600 C.3     1  UNL1        0.0435
      8 C         144.1395  143.8712  162.8409 C.3     1  UNL1        0.0737
      9 N         143.0698  144.8723  162.5190 N.3     1  UNL1       -0.2895
     10 H         143.5393  145.6904  162.1309 H       1  UNL1        0.1237
     11 C         142.1576  145.3693  163.6012 C.3     1  UNL1        0.1552
     12 C         138.3104  144.5278  163.1104 C.3     1  UNL1        0.1149
     13 N         139.6597  145.1550  162.9200 N.am    1  UNL1       -0.2749
     14 C         139.8601  146.1952  161.8579 C.3     1  UNL1        0.1149
     15 C         140.8084  144.7421  163.7916 C.2     1  UNL1        0.2419
     16 O         140.6080  143.7019  164.8537 O.2     1  UNL1       -0.2734
     17 O         142.0335  139.7401  167.0756 O.3     1  UNL1       -0.4755
     18 C         140.6258  140.2507  166.9888 C.3     1  UNL1        0.2054
     19 C         140.0887  141.1552  168.0582 C.3     1  UNL1        0.0476
     20 C         140.6461  142.5383  168.2204 C.3     1  UNL1        0.0126
     21 C         141.4862  142.8727  169.4172 C.3     1  UNL1        0.1034
     22 C         142.6695  142.0190  169.7651 C.3     1  UNL1        0.3978
     23 F         143.8528  141.1653  170.1130 F       1  UNL1       -0.1700
     24 F         143.4419  142.6279  168.6326 F       1  UNL1       -0.1700
     25 F         141.8972  141.4100  170.8976 F       1  UNL1       -0.1700
@<TRIPOS>BOND
     1    12    13    1
     2    13    14    1
     3    13    15   am
     4    15    16    2
     5    15    11    1
     6    11     9    1
     7     9     8    1
     8     8     7    1
     9     7     1    1
    10     1     2   ar
    11     2     3   ar
    12     3     4   ar
    13     4     5   ar
    14     5    17    1
    15    17    18    1
    16    18    19    1
    17    19    20    1
    18    20    21    1
    19    21    22    1
    20    22    23    1
    21    22    24    1
    22    22    25    1
    23     5     6   ar
    24     6     1   ar
    25     9    10    1
@<TRIPOS>MOLECULE
*****
 25 25 0 0 0
SMALL
GASTEIGER

@<TRIPOS>ATOM
      1 C         142.6867  140.3559  165.1815 C.ar    1  UNL1       -0.0178
      2 C         142.8070  140.5921  166.6578 C.ar    1  UNL1       -0.0040
      3 C         141.9909  141.6657  167.3146 C.ar    1  UNL1        0.0028
      4 C         141.0545  142.5031  166.4950 C.ar    1  UNL1        0.0369
      5 C         140.9342  142.2669  165.0186 C.ar    1  UNL1        0.1382
      6 C         141.7503  141.1933  164.3618 C.ar    1  UNL1        0.0327
      7 C         143.5029  139.2823  164.5247 C.3     1  UNL1        0.0435
      8 C         144.9415  139.5362  164.1843 C.3     1  UNL1        0.0737
      9 N         145.2931  140.3878  163.0007 N.3     1  UNL1       -0.2895
     10 H         146.0734  139.9298  162.5298 H       1  UNL1        0.1237
     11 C         145.6882  141.8213  163.1989 C.3     1  UNL1        0.1552
     12 C         143.2172  144.9073  163.5461 C.3     1  UNL1        0.1149
     13 N         144.1729  143.8092  163.9075 N.am    1  UNL1       -0.2749
     14 C         144.5690  143.6007  165.3393 C.3     1  UNL1        0.1149
     15 C         144.7325  142.9195  162.8374 C.2     1  UNL1        0.2419
     16 O         144.3364  143.1279  161.4057 O.2     1  UNL1       -0.2734
     17 O         139.9978  143.1044  164.1989 O.3     1  UNL1       -0.4755
     18 C         138.5462  143.1859  164.5679 C.3     1  UNL1        0.2054
     19 C         137.5844  142.1522  164.0614 C.3     1  UNL1        0.0476
     20 C         138.0024  140.7139  163.9816 C.3     1  UNL1        0.0126
     21 C         138.2570  139.9360  165.2385 C.3     1  UNL1        0.1034
     22 C         139.1550  138.7349  165.2084 C.3     1  UNL1        0.3978
     23 F         140.0530  137.5338  165.1782 F       1  UNL1       -0.1700
     24 F         139.7660  139.1590  166.5110 F       1  UNL1       -0.1700
     25 F         138.5440  138.3108  163.9058 F       1  UNL1       -0.1700
@<TRIPOS>BOND
     1    12    13    1
     2    13    14    1
     3    13    15   am
     4    15    16    2
     5    15    11    1
     6    11     9    1
     7     9     8    1
     8     8     7    1
     9     7     1    1
    10     1     2   ar
    11     2     3   ar
    12     3     4   ar
    13     4     5   ar
    14     5    17    1
    15    17    18    1
    16    18    19    1
    17    19    20    1
    18    20    21    1
    19    21    22    1
    20    22    23    1
    21    22    24    1
    22    22    25    1
    23     5     6   ar
    24     6     1   ar
    25     9    10    1
@<TRIPOS>MOLECULE
*****
 25 25 0 0 0
SMALL
GASTEIGER

@<TRIPOS>ATOM
      1 C         138.1340  140.2141  163.7237 C.ar    1  UNL1       -0.0178
      2 C         138.0640  139.8828  165.1849 C.ar    1  UNL1       -0.0040
      3 C         138.8089  138.6966  165.7216 C.ar    1  UNL1        0.0028
      4 C         139.6238  137.8417  164.7970 C.ar    1  UNL1        0.0369
      5 C         139.6938  138.1729  163.3357 C.ar    1  UNL1        0.1382
      6 C         138.9489  139.3591  162.7991 C.ar    1  UNL1        0.0327
      7 C         137.3890  141.4003  163.1870 C.3     1  UNL1        0.0435
      8 C         137.9855  142.2246  162.0849 C.3     1  UNL1        0.0737
      9 N         137.6918  143.6934  162.0038 N.3     1  UNL1       -0.2895
     10 H         138.0805  144.0230  161.1203 H       1  UNL1        0.1237
     11 C         138.1960  144.6191  163.0710 C.3     1  UNL1        0.1552
     12 C         142.0454  145.3168  163.7380 C.3     1  UNL1        0.1149
     13 N         140.6729  144.7219  163.8484 N.am    1  UNL1       -0.2749
     14 C         140.4046  143.6349  164.8468 C.3     1  UNL1        0.1149
     15 C         139.5686  145.2140  162.9606 C.2     1  UNL1        0.2419
     16 O         139.8368  146.3009  161.9622 O.2     1  UNL1       -0.2734
     17 O         140.5088  137.3180  162.4110 O.3     1  UNL1       -0.4755
     18 C         141.9952  137.5033  162.3330 C.3     1  UNL1        0.2054
     19 C         142.5835  138.8818  162.3950 C.3     1  UNL1        0.0476
     20 C         143.8284  139.1308  163.1937 C.3     1  UNL1        0.0126
     21 C         143.7263  139.5740  164.6231 C.3     1  UNL1        0.1034
     22 C         143.8948  138.5772  165.7313 C.3     1  UNL1        0.3978
     23 F         144.0632  137.5804  166.8395 F       1  UNL1       -0.1700
     24 F         145.3729  138.5460  165.4786 F       1  UNL1       -0.1700
     25 F         142.4166  138.6084  165.9840 F       1  UNL1       -0.1700
@<TRIPOS>BOND
     1    12    13    1
     2    13    14    1
     3    13    15   am
     4    15    16    2
     5    15    11    1
     6    11     9    1
     7     9     8    1
     8     8     7    1
     9     7     1    1
    10     1     2   ar
    11     2     3   ar
    12     3     4   ar
    13     4     5   ar
    14     5    17    1
    15    17    18    1
    16    18    19    1
    17    19    20    1
    18    20    21    1
    19    21    22    1
    20    22    23    1
    21    22    24    1
    22    22    25    1
    23     5     6   ar
    24     6     1   ar
    25     9    10    1
@<TRIPOS>MOLECULE
*****
 25 25 0 0 0
SMALL
GASTEIGER

@<TRIPOS>ATOM
      1 C         141.0232  144.4329  164.2926 C.ar    1  UNL1       -0.0178
      2 C         142.0352  145.3734  163.7085 C.ar    1  UNL1       -0.0040
      3 C         143.4973  145.0498  163.7948 C.ar    1  UNL1        0.0028
      4 C         143.9474  143.7858  164.4653 C.ar    1  UNL1        0.0369
      5 C         142.9354  142.8453  165.0494 C.ar    1  UNL1        0.1382
      6 C         141.4733  143.1688  164.9630 C.ar    1  UNL1        0.0327
      7 C         139.5610  144.7564  164.2062 C.3     1  UNL1        0.0435
      8 C         138.8963  144.8720  162.8665 C.3     1  UNL1        0.0737
      9 N         137.7188  144.0035  162.5361 N.3     1  UNL1       -0.2895
     10 H         136.8917  144.5985  162.5828 H       1  UNL1        0.1237
     11 C         137.4261  142.7890  163.3665 C.3     1  UNL1        0.1552
     12 C         138.5092  138.9765  163.1626 C.3     1  UNL1        0.1149
     13 N         138.2363  140.3450  163.7130 N.am    1  UNL1       -0.2749
     14 C         138.5008  140.6378  165.1602 C.3     1  UNL1        0.1149
     15 C         137.6990  141.4206  162.8162 C.2     1  UNL1        0.2419
     16 O         137.4346  141.1278  161.3689 O.2     1  UNL1       -0.2734
     17 O         143.3855  141.5812  165.7199 O.3     1  UNL1       -0.4755
     18 C         142.4269  140.4400  165.8898 C.3     1  UNL1        0.2054
     19 C         141.6905  140.2656  167.1849 C.3     1  UNL1        0.0476
     20 C         141.7670  141.3287  168.2403 C.3     1  UNL1        0.0126
     21 C         140.5228  141.7683  168.9536 C.3     1  UNL1        0.1034
     22 C         140.3920  143.1848  169.4296 C.3     1  UNL1        0.3978
     23 F         140.2611  144.6012  169.9056 F       1  UNL1       -0.1700
     24 F         140.1628  143.6380  168.0182 F       1  UNL1       -0.1700
     25 F         140.6211  142.7316  170.8410 F       1  UNL1       -0.1700
@<TRIPOS>BOND
     1    12    13    1
     2    13    14    1
     3    13    15   am
     4    15    16    2
     5    15    11    1
     6    11     9    1
     7     9     8    1
     8     8     7    1
     9     7     1    1
    10     1     2   ar
    11     2     3   ar
    12     3     4   ar
    13     4     5   ar
    14     5    17    1
    15    17    18    1
    16    18    19    1
    17    19    20    1
    18    20    21    1
    19    21    22    1
    20    22    23    1
    21    22    24    1
    22    22    25    1
    23     5     6   ar
    24     6     1   ar
    25     9    10    1
