@<TRIPOS>MOLECULE
*****
 33 35 0 0 0
SMALL
GASTEIGER

@<TRIPOS>ATOM
      1 C         140.5035  142.1431  166.1578 C.2     1  UNL1       -0.0040
      2 C         139.8719  140.8066  165.9034 C.2     1  UNL1       -0.0221
      3 C         141.1226  142.4384  167.4918 C.ar    1  UNL1       -0.0001
      4 C         140.3121  143.1048  168.5637 C.ar    1  UNL1        0.0031
      5 C         140.9313  143.4000  169.8978 C.ar    1  UNL1        0.0366
      6 C         142.3608  143.0288  170.1598 C.ar    1  UNL1        0.1337
      7 O         142.9799  143.3240  171.4938 O.3     1  UNL1       -0.5055
      8 C         143.1712  142.3624  169.0878 C.ar    1  UNL1        0.0366
      9 C         142.5522  142.0672  167.7538 C.ar    1  UNL1        0.0031
     10 H         142.4737  143.7403  172.1635 H       1  UNL1        0.2922
     11 C         140.5413  145.2669  162.9189 C.ar    1  UNL1        0.1386
     12 C         139.3814  145.1828  163.8662 C.ar    1  UNL1        0.0369
     13 C         139.3688  144.1415  164.9459 C.ar    1  UNL1        0.0031
     14 C         140.5161  143.1844  165.0782 C.ar    1  UNL1       -0.0001
     15 C         141.6760  143.2685  164.1308 C.ar    1  UNL1        0.0031
     16 C         141.6886  144.3098  163.0512 C.ar    1  UNL1        0.0369
     17 O         140.5539  146.3082  161.8393 O.3     1  UNL1       -0.4740
     18 C         139.8708  146.0404  160.5310 C.3     1  UNL1        0.2226
     19 C         140.5199  145.1483  159.5148 C.3     1  UNL1        0.1201
     20 C         139.5532  142.8397  160.2121 C.3     1  UNL1        0.0898
     21 N         139.8805  143.8425  159.1457 N.3     1  UNL1       -0.2672
     22 C         139.5683  143.5395  157.7101 C.3     1  UNL1        0.0898
     23 C         139.2527  140.5114  164.5694 C.ar    1  UNL1       -0.0040
     24 C         139.9704  139.6336  163.5873 C.ar    1  UNL1       -0.0003
     25 C         139.3514  139.3383  162.2533 C.ar    1  UNL1       -0.0000
     26 C         138.0146  139.9208  161.9014 C.ar    1  UNL1       -0.0000
     27 C         137.2969  140.7985  162.8835 C.ar    1  UNL1       -0.0000
     28 C         137.9160  141.0938  164.2175 C.ar    1  UNL1       -0.0003
     29 C         139.8593  139.7654  166.9831 C.3     1  UNL1        0.0289
     30 C         138.5585  139.3309  167.5909 C.3     1  UNL1        0.0364
     31 C         137.7063  138.3140  166.8910 C.3     1  UNL1        0.1375
     32 O         136.6757  137.5420  167.6603 O.3     1  UNL1       -0.3820
     33 H         137.1169  136.9676  168.3054 H       1  UNL1        0.2104
@<TRIPOS>BOND
     1    20    21    1
     2    21    22    1
     3    21    19    1
     4    19    18    1
     5    18    17    1
     6    17    11    1
     7    11    12   ar
     8    12    13   ar
     9    13    14   ar
    10    14     1    1
    11     1     2    2
    12     2    29    1
    13    29    30    1
    14    30    31    1
    15    31    32    1
    16     2    23    1
    17    23    24   ar
    18    24    25   ar
    19    25    26   ar
    20    26    27   ar
    21    27    28   ar
    22     1     3    1
    23     3     4   ar
    24     4     5   ar
    25     5     6   ar
    26     6     7    1
    27     6     8   ar
    28     8     9   ar
    29    14    15   ar
    30    15    16   ar
    31    16    11   ar
    32    28    23   ar
    33     9     3   ar
    34    32    33    1
    35     7    10    1
@<TRIPOS>MOLECULE
*****
 33 35 0 0 0
SMALL
GASTEIGER

@<TRIPOS>ATOM
      1 C         140.7326  141.9711  166.4613 C.2     1  UNL1       -0.0040
      2 C         140.0473  140.6399  166.3700 C.2     1  UNL1       -0.0221
      3 C         141.3692  142.4000  167.7500 C.ar    1  UNL1       -0.0001
      4 C         140.5900  143.2202  168.7349 C.ar    1  UNL1        0.0031
      5 C         141.2267  143.6491  170.0236 C.ar    1  UNL1        0.0366
      6 C         142.6425  143.2578  170.3273 C.ar    1  UNL1        0.1337
      7 O         143.2792  143.6867  171.6161 O.3     1  UNL1       -0.5055
      8 C         143.4217  142.4377  169.3424 C.ar    1  UNL1        0.0366
      9 C         142.7851  142.0087  168.0537 C.ar    1  UNL1        0.0031
     10 H         142.7925  144.1991  172.2313 H       1  UNL1        0.2922
     11 C         140.8785  144.6778  162.8693 C.ar    1  UNL1        0.1386
     12 C         141.8887  143.5797  163.0225 C.ar    1  UNL1        0.0369
     13 C         141.8401  142.6775  164.2198 C.ar    1  UNL1        0.0031
     14 C         140.7812  142.8733  165.2640 C.ar    1  UNL1       -0.0001
     15 C         139.7710  143.9714  165.1108 C.ar    1  UNL1        0.0031
     16 C         139.8196  144.8737  163.9135 C.ar    1  UNL1        0.0369
     17 O         140.9271  145.5801  161.6720 O.3     1  UNL1       -0.4740
     18 C         141.2059  145.0089  160.3133 C.3     1  UNL1        0.2226
     19 C         140.0994  144.8925  159.3073 C.3     1  UNL1        0.1201
     20 C         138.9000  142.8581  160.3903 C.3     1  UNL1        0.0898
     21 N         139.3458  143.6030  159.1671 N.3     1  UNL1       -0.2672
     22 C         139.0381  143.0586  157.8037 C.3     1  UNL1        0.0898
     23 C         139.4106  140.2109  165.0813 C.ar    1  UNL1       -0.0040
     24 C         138.1941  140.9252  164.5715 C.ar    1  UNL1       -0.0003
     25 C         137.5574  140.4963  163.2829 C.ar    1  UNL1       -0.0000
     26 C         138.1373  139.3530  162.5039 C.ar    1  UNL1       -0.0000
     27 C         139.3538  138.6388  163.0136 C.ar    1  UNL1       -0.0000
     28 C         139.9905  139.0677  164.3023 C.ar    1  UNL1       -0.0003
     29 C         139.9987  139.7377  167.5673 C.3     1  UNL1        0.0289
     30 C         138.8933  139.8823  168.5710 C.3     1  UNL1        0.0364
     31 C         139.2137  140.2303  169.9945 C.3     1  UNL1        0.1375
     32 O         140.2215  139.4213  170.7558 O.3     1  UNL1       -0.3820
     33 H         139.8849  138.5202  170.8808 H       1  UNL1        0.2104
@<TRIPOS>BOND
     1    20    21    1
     2    21    22    1
     3    21    19    1
     4    19    18    1
     5    18    17    1
     6    17    11    1
     7    11    12   ar
     8    12    13   ar
     9    13    14   ar
    10    14     1    1
    11     1     2    2
    12     2    29    1
    13    29    30    1
    14    30    31    1
    15    31    32    1
    16     2    23    1
    17    23    24   ar
    18    24    25   ar
    19    25    26   ar
    20    26    27   ar
    21    27    28   ar
    22     1     3    1
    23     3     4   ar
    24     4     5   ar
    25     5     6   ar
    26     6     7    1
    27     6     8   ar
    28     8     9   ar
    29    14    15   ar
    30    15    16   ar
    31    16    11   ar
    32    28    23   ar
    33     9     3   ar
    34    32    33    1
    35     7    10    1
@<TRIPOS>MOLECULE
*****
 33 35 0 0 0
SMALL
GASTEIGER

@<TRIPOS>ATOM
      1 C         140.5374  140.8573  166.6408 C.2     1  UNL1       -0.0040
      2 C         141.5825  139.7838  166.5668 C.2     1  UNL1       -0.0221
      3 C         140.1949  141.4808  167.9613 C.ar    1  UNL1       -0.0001
      4 C         139.4220  140.6991  168.9819 C.ar    1  UNL1        0.0031
      5 C         139.0795  141.3226  170.3025 C.ar    1  UNL1        0.0366
      6 C         139.5100  142.7278  170.6025 C.ar    1  UNL1        0.1337
      7 O         139.1675  143.3514  171.9231 O.3     1  UNL1       -0.5055
      8 C         140.2829  143.5096  169.5820 C.ar    1  UNL1        0.0366
      9 C         140.6254  142.8861  168.2614 C.ar    1  UNL1        0.0031
     10 H         138.6846  142.8631  172.5606 H       1  UNL1        0.2922
     11 C         138.4298  142.2072  162.9010 C.ar    1  UNL1        0.1386
     12 C         137.8173  141.1453  163.7654 C.ar    1  UNL1        0.0369
     13 C         138.5198  140.6953  165.0120 C.ar    1  UNL1        0.0031
     14 C         139.8349  141.3073  165.3942 C.ar    1  UNL1       -0.0001
     15 C         140.4474  142.3692  164.5298 C.ar    1  UNL1        0.0031
     16 C         139.7448  142.8191  163.2833 C.ar    1  UNL1        0.0369
     17 O         137.7272  142.6572  161.6545 O.3     1  UNL1       -0.4740
     18 C         138.3098  142.3399  160.3092 C.3     1  UNL1        0.2226
     19 C         138.3537  140.9202  159.8268 C.3     1  UNL1        0.1201
     20 C         140.8030  140.3002  160.4325 C.3     1  UNL1        0.0898
     21 N         139.3426  139.9583  160.4159 N.3     1  UNL1       -0.2672
     22 C         138.8710  138.6545  160.9883 C.3     1  UNL1        0.0898
     23 C         141.9250  139.1603  165.2462 C.ar    1  UNL1       -0.0040
     24 C         141.1003  138.0249  164.7165 C.ar    1  UNL1       -0.0003
     25 C         141.4428  137.4013  163.3959 C.ar    1  UNL1       -0.0000
     26 C         142.6101  137.9132  162.6050 C.ar    1  UNL1       -0.0000
     27 C         143.4348  139.0486  163.1348 C.ar    1  UNL1       -0.0000
     28 C         143.0923  139.6722  164.4554 C.ar    1  UNL1       -0.0003
     29 C         142.2850  139.3339  167.8134 C.3     1  UNL1        0.0289
     30 C         142.9774  140.3370  168.6877 C.3     1  UNL1        0.0364
     31 C         142.8193  140.2688  170.1778 C.3     1  UNL1        0.1375
     32 O         144.0167  140.0290  171.0489 O.3     1  UNL1       -0.3820
     33 H         144.3650  139.1392  170.8817 H       1  UNL1        0.2104
@<TRIPOS>BOND
     1    20    21    1
     2    21    22    1
     3    21    19    1
     4    19    18    1
     5    18    17    1
     6    17    11    1
     7    11    12   ar
     8    12    13   ar
     9    13    14   ar
    10    14     1    1
    11     1     2    2
    12     2    29    1
    13    29    30    1
    14    30    31    1
    15    31    32    1
    16     2    23    1
    17    23    24   ar
    18    24    25   ar
    19    25    26   ar
    20    26    27   ar
    21    27    28   ar
    22     1     3    1
    23     3     4   ar
    24     4     5   ar
    25     5     6   ar
    26     6     7    1
    27     6     8   ar
    28     8     9   ar
    29    14    15   ar
    30    15    16   ar
    31    16    11   ar
    32    28    23   ar
    33     9     3   ar
    34    32    33    1
    35     7    10    1
@<TRIPOS>MOLECULE
*****
 33 35 0 0 0
SMALL
GASTEIGER

@<TRIPOS>ATOM
      1 C         140.7743  141.7011  166.0286 C.2     1  UNL1       -0.0040
      2 C         139.8402  140.5305  165.9443 C.2     1  UNL1       -0.0221
      3 C         141.3374  142.1172  167.3551 C.ar    1  UNL1       -0.0001
      4 C         140.5108  142.9443  168.2946 C.ar    1  UNL1        0.0031
      5 C         141.0740  143.3604  169.6212 C.ar    1  UNL1        0.0366
      6 C         142.4638  142.9495  170.0081 C.ar    1  UNL1        0.1337
      7 O         143.0270  143.3657  171.3347 O.3     1  UNL1       -0.5055
      8 C         143.2904  142.1225  169.0686 C.ar    1  UNL1        0.0366
      9 C         142.7272  141.7063  167.7421 C.ar    1  UNL1        0.0031
     10 H         142.5106  143.8823  171.9216 H       1  UNL1        0.2922
     11 C         141.8872  143.9644  162.3018 C.ar    1  UNL1        0.1386
     12 C         140.7270  144.4188  163.1369 C.ar    1  UNL1        0.0369
     13 C         140.3560  143.6643  164.3791 C.ar    1  UNL1        0.0031
     14 C         141.1453  142.4555  164.7863 C.ar    1  UNL1       -0.0001
     15 C         142.3055  142.0012  163.9512 C.ar    1  UNL1        0.0031
     16 C         142.6765  142.7557  162.7090 C.ar    1  UNL1        0.0369
     17 O         142.2582  144.7189  161.0595 O.3     1  UNL1       -0.4740
     18 C         142.0043  144.1139  159.7107 C.3     1  UNL1        0.2226
     19 C         140.9819  143.0271  159.5565 C.3     1  UNL1        0.1201
     20 C         141.0982  140.4919  160.1129 C.3     1  UNL1        0.0898
     21 N         141.4141  141.6365  159.1963 N.3     1  UNL1       -0.2672
     22 C         142.1620  141.3906  157.9196 C.3     1  UNL1        0.0898
     23 C         139.2770  140.1143  164.6178 C.ar    1  UNL1       -0.0040
     24 C         139.8514  138.9307  163.8972 C.ar    1  UNL1       -0.0003
     25 C         139.2883  138.5145  162.5707 C.ar    1  UNL1       -0.0000
     26 C         138.1507  139.2819  161.9647 C.ar    1  UNL1       -0.0000
     27 C         137.5763  140.4655  162.6853 C.ar    1  UNL1       -0.0000
     28 C         138.1395  140.8817  164.0119 C.ar    1  UNL1       -0.0003
     29 C         139.4692  139.7761  167.1866 C.3     1  UNL1        0.0289
     30 C         138.0839  139.2221  167.3421 C.3     1  UNL1        0.0364
     31 C         137.7399  137.8862  166.7529 C.3     1  UNL1        0.1375
     32 O         137.0266  136.8613  167.5840 O.3     1  UNL1       -0.3820
     33 H         137.6033  136.5750  168.3095 H       1  UNL1        0.2104
@<TRIPOS>BOND
     1    20    21    1
     2    21    22    1
     3    21    19    1
     4    19    18    1
     5    18    17    1
     6    17    11    1
     7    11    12   ar
     8    12    13   ar
     9    13    14   ar
    10    14     1    1
    11     1     2    2
    12     2    29    1
    13    29    30    1
    14    30    31    1
    15    31    32    1
    16     2    23    1
    17    23    24   ar
    18    24    25   ar
    19    25    26   ar
    20    26    27   ar
    21    27    28   ar
    22     1     3    1
    23     3     4   ar
    24     4     5   ar
    25     5     6   ar
    26     6     7    1
    27     6     8   ar
    28     8     9   ar
    29    14    15   ar
    30    15    16   ar
    31    16    11   ar
    32    28    23   ar
    33     9     3   ar
    34    32    33    1
    35     7    10    1
@<TRIPOS>MOLECULE
*****
 33 35 0 0 0
SMALL
GASTEIGER

@<TRIPOS>ATOM
      1 C         141.4691  141.3987  166.3140 C.2     1  UNL1       -0.0040
      2 C         142.3619  140.2910  165.8387 C.2     1  UNL1       -0.0221
      3 C         141.2112  141.5770  167.7808 C.ar    1  UNL1       -0.0001
      4 C         142.1358  142.4204  168.6078 C.ar    1  UNL1        0.0031
      5 C         141.8778  142.5987  170.0747 C.ar    1  UNL1        0.0366
      6 C         140.6954  141.9337  170.7146 C.ar    1  UNL1        0.1337
      7 O         140.4374  142.1120  172.1815 O.3     1  UNL1       -0.5055
      8 C         139.7708  141.0903  169.8876 C.ar    1  UNL1        0.0366
      9 C         140.0287  140.9120  168.4207 C.ar    1  UNL1        0.0031
     10 H         141.0149  142.6388  172.6981 H       1  UNL1        0.2922
     11 C         139.5645  144.1868  163.3393 C.ar    1  UNL1        0.1386
     12 C         138.7920  143.0164  163.8715 C.ar    1  UNL1        0.0369
     13 C         139.4268  142.0870  164.8631 C.ar    1  UNL1        0.0031
     14 C         140.8343  142.3281  165.3224 C.ar    1  UNL1       -0.0001
     15 C         141.6068  143.4985  164.7902 C.ar    1  UNL1        0.0031
     16 C         140.9719  144.4278  163.7986 C.ar    1  UNL1        0.0369
     17 O         138.9296  145.1161  162.3477 O.3     1  UNL1       -0.4740
     18 C         139.7872  146.0104  161.5022 C.3     1  UNL1        0.2226
     19 C         140.3694  145.4967  160.2188 C.3     1  UNL1        0.1201
     20 C         141.7599  143.3066  160.3619 C.3     1  UNL1        0.0898
     21 N         140.4936  144.0194  159.9899 N.3     1  UNL1       -0.2672
     22 C         139.3515  143.2550  159.3889 C.3     1  UNL1        0.0898
     23 C         142.6199  140.1126  164.3718 C.ar    1  UNL1       -0.0040
     24 C         143.8640  140.6796  163.7547 C.ar    1  UNL1       -0.0003
     25 C         144.1219  140.5012  162.2879 C.ar    1  UNL1       -0.0000
     26 C         143.1358  139.7559  161.4381 C.ar    1  UNL1       -0.0000
     27 C         141.8917  139.1890  162.0552 C.ar    1  UNL1       -0.0000
     28 C         141.6337  139.3673  163.5221 C.ar    1  UNL1       -0.0003
     29 C         142.9968  139.3617  166.8303 C.3     1  UNL1        0.0289
     30 C         143.7089  138.1301  166.3546 C.3     1  UNL1        0.0364
     31 C         144.3938  137.2315  167.3413 C.3     1  UNL1        0.1375
     32 O         145.8562  136.9324  167.1940 O.3     1  UNL1       -0.3820
     33 H         146.0017  136.4224  166.3818 H       1  UNL1        0.2104
@<TRIPOS>BOND
     1    20    21    1
     2    21    22    1
     3    21    19    1
     4    19    18    1
     5    18    17    1
     6    17    11    1
     7    11    12   ar
     8    12    13   ar
     9    13    14   ar
    10    14     1    1
    11     1     2    2
    12     2    29    1
    13    29    30    1
    14    30    31    1
    15    31    32    1
    16     2    23    1
    17    23    24   ar
    18    24    25   ar
    19    25    26   ar
    20    26    27   ar
    21    27    28   ar
    22     1     3    1
    23     3     4   ar
    24     4     5   ar
    25     5     6   ar
    26     6     7    1
    27     6     8   ar
    28     8     9   ar
    29    14    15   ar
    30    15    16   ar
    31    16    11   ar
    32    28    23   ar
    33     9     3   ar
    34    32    33    1
    35     7    10    1
@<TRIPOS>MOLECULE
*****
 33 35 0 0 0
SMALL
GASTEIGER

@<TRIPOS>ATOM
      1 C         140.8548  140.1220  165.2863 C.2     1  UNL1       -0.0040
      2 C         142.2411  140.0243  165.8506 C.2     1  UNL1       -0.0221
      3 C         139.7155  139.4274  165.9714 C.ar    1  UNL1       -0.0001
      4 C         139.1327  138.1789  165.3785 C.ar    1  UNL1        0.0031
      5 C         137.9933  137.4843  166.0637 C.ar    1  UNL1        0.0366
      6 C         137.4368  138.0382  167.3417 C.ar    1  UNL1        0.1337
      7 O         136.2974  137.3436  168.0269 O.3     1  UNL1       -0.5055
      8 C         138.0196  139.2867  167.9346 C.ar    1  UNL1        0.0366
      9 C         139.1589  139.9813  167.2495 C.ar    1  UNL1        0.0031
     10 H         135.9334  136.5637  167.6565 H       1  UNL1        0.2922
     11 C         140.1138  142.4991  161.5379 C.ar    1  UNL1        0.1386
     12 C         140.5573  141.0693  161.4439 C.ar    1  UNL1        0.0369
     13 C         140.8043  140.2769  162.6933 C.ar    1  UNL1        0.0031
     14 C         140.6078  140.9144  164.0368 C.ar    1  UNL1       -0.0001
     15 C         140.1644  142.3442  164.1308 C.ar    1  UNL1        0.0031
     16 C         139.9174  143.1366  162.8814 C.ar    1  UNL1        0.0369
     17 O         139.8668  143.2915  160.2884 O.3     1  UNL1       -0.4740
     18 C         140.4532  144.6644  160.1428 C.3     1  UNL1        0.2226
     19 C         141.7001  144.8655  159.3336 C.3     1  UNL1        0.1201
     20 C         143.3550  143.3473  160.6399 C.3     1  UNL1        0.0898
     21 N         142.7749  143.8191  159.3396 N.3     1  UNL1       -0.2672
     22 C         143.2696  143.2447  158.0453 C.3     1  UNL1        0.0898
     23 C         143.3806  140.7189  165.1655 C.ar    1  UNL1       -0.0040
     24 C         144.2564  139.9614  164.2120 C.ar    1  UNL1       -0.0003
     25 C         145.3958  140.6559  163.5269 C.ar    1  UNL1       -0.0000
     26 C         145.6593  142.1081  163.7952 C.ar    1  UNL1       -0.0000
     27 C         144.7835  142.8656  164.7487 C.ar    1  UNL1       -0.0000
     28 C         143.6441  142.1709  165.4338 C.ar    1  UNL1       -0.0003
     29 C         142.4881  139.2319  167.1001 C.3     1  UNL1        0.0289
     30 C         142.6555  139.9361  168.4139 C.3     1  UNL1        0.0364
     31 C         142.3568  139.2148  169.6948 C.3     1  UNL1        0.1375
     32 O         143.3642  139.2114  170.8061 O.3     1  UNL1       -0.3820
     33 H         144.1538  138.7230  170.5252 H       1  UNL1        0.2104
@<TRIPOS>BOND
     1    20    21    1
     2    21    22    1
     3    21    19    1
     4    19    18    1
     5    18    17    1
     6    17    11    1
     7    11    12   ar
     8    12    13   ar
     9    13    14   ar
    10    14     1    1
    11     1     2    2
    12     2    29    1
    13    29    30    1
    14    30    31    1
    15    31    32    1
    16     2    23    1
    17    23    24   ar
    18    24    25   ar
    19    25    26   ar
    20    26    27   ar
    21    27    28   ar
    22     1     3    1
    23     3     4   ar
    24     4     5   ar
    25     5     6   ar
    26     6     7    1
    27     6     8   ar
    28     8     9   ar
    29    14    15   ar
    30    15    16   ar
    31    16    11   ar
    32    28    23   ar
    33     9     3   ar
    34    32    33    1
    35     7    10    1
@<TRIPOS>MOLECULE
*****
 33 35 0 0 0
SMALL
GASTEIGER

@<TRIPOS>ATOM
      1 C         140.8413  140.3660  165.2692 C.2     1  UNL1       -0.0040
      2 C         142.2729  139.9736  165.4843 C.2     1  UNL1       -0.0221
      3 C         139.7422  139.5803  165.9208 C.ar    1  UNL1       -0.0001
      4 C         139.1802  140.0270  167.2379 C.ar    1  UNL1        0.0031
      5 C         138.0811  139.2412  167.8895 C.ar    1  UNL1        0.0366
      6 C         137.5441  138.0088  167.2241 C.ar    1  UNL1        0.1337
      7 O         136.4450  137.2230  167.8758 O.3     1  UNL1       -0.5055
      8 C         138.1061  137.5621  165.9071 C.ar    1  UNL1        0.0366
      9 C         139.2052  138.3478  165.2555 C.ar    1  UNL1        0.0031
     10 H         136.0939  137.5020  168.6985 H       1  UNL1        0.2922
     11 C         139.8435  143.9006  162.6689 C.ar    1  UNL1        0.1386
     12 C         139.8197  144.0377  164.1624 C.ar    1  UNL1        0.0369
     13 C         140.1523  142.8595  165.0292 C.ar    1  UNL1        0.0031
     14 C         140.5087  141.5442  164.4024 C.ar    1  UNL1       -0.0001
     15 C         140.5324  141.4071  162.9089 C.ar    1  UNL1        0.0031
     16 C         140.1998  142.5852  162.0422 C.ar    1  UNL1        0.0369
     17 O         139.5109  145.0788  161.8021 O.3     1  UNL1       -0.4740
     18 C         140.5377  145.6279  160.8566 C.3     1  UNL1        0.2226
     19 C         140.5161  145.2279  159.4111 C.3     1  UNL1        0.1201
     20 C         142.6163  143.7133  159.1983 C.3     1  UNL1        0.0898
     21 N         141.7946  144.8704  158.7127 N.3     1  UNL1       -0.2672
     22 C         142.2514  145.6701  157.5287 C.3     1  UNL1        0.0898
     23 C         143.3720  140.7593  164.8326 C.ar    1  UNL1       -0.0040
     24 C         144.0730  140.2096  163.6257 C.ar    1  UNL1       -0.0003
     25 C         145.1720  140.9953  162.9740 C.ar    1  UNL1       -0.0000
     26 C         145.5703  142.3307  163.5292 C.ar    1  UNL1       -0.0000
     27 C         144.8694  142.8803  164.7361 C.ar    1  UNL1       -0.0000
     28 C         143.7702  142.0946  165.3878 C.ar    1  UNL1       -0.0003
     29 C         142.6055  138.7954  166.3510 C.3     1  UNL1        0.0289
     30 C         143.0741  139.0093  167.7599 C.3     1  UNL1        0.0364
     31 C         142.5949  140.1993  168.5371 C.3     1  UNL1        0.1375
     32 O         143.3591  140.6666  169.7403 O.3     1  UNL1       -0.3820
     33 H         143.3143  139.9905  170.4344 H       1  UNL1        0.2104
@<TRIPOS>BOND
     1    20    21    1
     2    21    22    1
     3    21    19    1
     4    19    18    1
     5    18    17    1
     6    17    11    1
     7    11    12   ar
     8    12    13   ar
     9    13    14   ar
    10    14     1    1
    11     1     2    2
    12     2    29    1
    13    29    30    1
    14    30    31    1
    15    31    32    1
    16     2    23    1
    17    23    24   ar
    18    24    25   ar
    19    25    26   ar
    20    26    27   ar
    21    27    28   ar
    22     1     3    1
    23     3     4   ar
    24     4     5   ar
    25     5     6   ar
    26     6     7    1
    27     6     8   ar
    28     8     9   ar
    29    14    15   ar
    30    15    16   ar
    31    16    11   ar
    32    28    23   ar
    33     9     3   ar
    34    32    33    1
    35     7    10    1
@<TRIPOS>MOLECULE
*****
 33 35 0 0 0
SMALL
GASTEIGER

@<TRIPOS>ATOM
      1 C         141.0478  141.2121  166.0174 C.2     1  UNL1       -0.0040
      2 C         142.4040  140.6028  165.8195 C.2     1  UNL1       -0.0221
      3 C         140.2164  140.8225  167.2036 C.ar    1  UNL1       -0.0001
      4 C         139.1970  139.7293  167.0785 C.ar    1  UNL1        0.0031
      5 C         138.3656  139.3398  168.2647 C.ar    1  UNL1        0.0366
      6 C         138.5537  140.0433  169.5760 C.ar    1  UNL1        0.1337
      7 O         137.7223  139.6538  170.7623 O.3     1  UNL1       -0.5055
      8 C         139.5732  141.1365  169.7011 C.ar    1  UNL1        0.0366
      9 C         140.4045  141.5261  168.5150 C.ar    1  UNL1        0.0031
     10 H         137.0855  138.9709  170.6841 H       1  UNL1        0.2922
     11 C         139.4731  144.2090  163.0528 C.ar    1  UNL1        0.1386
     12 C         139.0931  142.7631  162.9313 C.ar    1  UNL1        0.0369
     13 C         139.6180  141.7641  163.9196 C.ar    1  UNL1        0.0031
     14 C         140.5229  142.2111  165.0292 C.ar    1  UNL1       -0.0001
     15 C         140.9028  143.6571  165.1507 C.ar    1  UNL1        0.0031
     16 C         140.3779  144.6560  164.1625 C.ar    1  UNL1        0.0369
     17 O         138.9482  145.2080  162.0646 O.3     1  UNL1       -0.4740
     18 C         139.9023  146.0111  161.2312 C.3     1  UNL1        0.2226
     19 C         140.3839  145.4748  159.9157 C.3     1  UNL1        0.1201
     20 C         139.7751  143.0832  159.1034 C.3     1  UNL1        0.0898
     21 N         140.7301  144.0216  159.7797 N.3     1  UNL1       -0.2672
     22 C         142.0312  143.5068  160.3201 C.3     1  UNL1        0.0898
     23 C         143.2354  140.9924  164.6333 C.ar    1  UNL1       -0.0040
     24 C         143.0187  140.3175  163.3113 C.ar    1  UNL1       -0.0003
     25 C         143.8500  140.7071  162.1251 C.ar    1  UNL1       -0.0000
     26 C         144.8982  141.7715  162.2609 C.ar    1  UNL1       -0.0000
     27 C         145.1150  142.4463  163.5828 C.ar    1  UNL1       -0.0000
     28 C         144.2836  142.0567  164.7691 C.ar    1  UNL1       -0.0003
     29 C         142.9289  139.6038  166.8077 C.3     1  UNL1        0.0289
     30 C         143.2815  138.2172  166.3571 C.3     1  UNL1        0.0364
     31 C         144.6871  137.7149  166.5058 C.3     1  UNL1        0.1375
     32 O         144.9955  136.6313  167.4960 O.3     1  UNL1       -0.3820
     33 H         144.8456  136.9627  168.3952 H       1  UNL1        0.2104
@<TRIPOS>BOND
     1    20    21    1
     2    21    22    1
     3    21    19    1
     4    19    18    1
     5    18    17    1
     6    17    11    1
     7    11    12   ar
     8    12    13   ar
     9    13    14   ar
    10    14     1    1
    11     1     2    2
    12     2    29    1
    13    29    30    1
    14    30    31    1
    15    31    32    1
    16     2    23    1
    17    23    24   ar
    18    24    25   ar
    19    25    26   ar
    20    26    27   ar
    21    27    28   ar
    22     1     3    1
    23     3     4   ar
    24     4     5   ar
    25     5     6   ar
    26     6     7    1
    27     6     8   ar
    28     8     9   ar
    29    14    15   ar
    30    15    16   ar
    31    16    11   ar
    32    28    23   ar
    33     9     3   ar
    34    32    33    1
    35     7    10    1
@<TRIPOS>MOLECULE
*****
 33 35 0 0 0
SMALL
GASTEIGER

@<TRIPOS>ATOM
      1 C         141.0878  142.0464  165.8128 C.2     1  UNL1       -0.0040
      2 C         140.9047  140.6239  165.3737 C.2     1  UNL1       -0.0221
      3 C         141.5368  142.3475  167.2119 C.ar    1  UNL1       -0.0001
      4 C         142.9707  142.1403  167.6005 C.ar    1  UNL1        0.0031
      5 C         143.4197  142.4414  168.9997 C.ar    1  UNL1        0.0366
      6 C         142.4348  142.9498  170.0103 C.ar    1  UNL1        0.1337
      7 O         142.8837  143.2510  171.4096 O.3     1  UNL1       -0.5055
      8 C         141.0009  143.1571  169.6218 C.ar    1  UNL1        0.0366
      9 C         140.5519  142.8560  168.2227 C.ar    1  UNL1        0.0031
     10 H         143.7794  143.1215  171.6523 H       1  UNL1        0.2922
     11 C         140.2905  145.4106  162.9324 C.ar    1  UNL1        0.1386
     12 C         139.1502  144.7528  163.6516 C.ar    1  UNL1        0.0369
     13 C         139.4160  143.6314  164.6117 C.ar    1  UNL1        0.0031
     14 C         140.8221  143.1678  164.8527 C.ar    1  UNL1       -0.0001
     15 C         141.9623  143.8256  164.1335 C.ar    1  UNL1        0.0031
     16 C         141.6965  144.9469  163.1734 C.ar    1  UNL1        0.0369
     17 O         140.0247  146.5320  161.9723 O.3     1  UNL1       -0.4740
     18 C         139.7593  146.2343  160.5263 C.3     1  UNL1        0.2226
     19 C         140.7648  145.4647  159.7222 C.3     1  UNL1        0.1201
     20 C         139.4280  143.2589  160.0350 C.3     1  UNL1        0.0898
     21 N         140.7014  143.9666  159.6776 N.3     1  UNL1       -0.2672
     22 C         141.9112  143.1764  159.2755 C.3     1  UNL1        0.0898
     23 C         140.4557  140.3227  163.9745 C.ar    1  UNL1       -0.0040
     24 C         141.4506  140.3189  162.8520 C.ar    1  UNL1       -0.0003
     25 C         141.0017  140.0177  161.4529 C.ar    1  UNL1       -0.0000
     26 C         139.5577  139.7203  161.1761 C.ar    1  UNL1       -0.0000
     27 C         138.5627  139.7240  162.2986 C.ar    1  UNL1       -0.0000
     28 C         139.0118  140.0252  163.6979 C.ar    1  UNL1       -0.0003
     29 C         141.1705  139.5025  166.3339 C.3     1  UNL1        0.0289
     30 C         142.1927  138.4564  166.0008 C.3     1  UNL1        0.0364
     31 C         143.6527  138.7992  166.0274 C.3     1  UNL1        0.1375
     32 O         144.2553  139.6012  164.9122 O.3     1  UNL1       -0.3820
     33 H         144.2244  139.0865  164.0906 H       1  UNL1        0.2104
@<TRIPOS>BOND
     1    20    21    1
     2    21    22    1
     3    21    19    1
     4    19    18    1
     5    18    17    1
     6    17    11    1
     7    11    12   ar
     8    12    13   ar
     9    13    14   ar
    10    14     1    1
    11     1     2    2
    12     2    29    1
    13    29    30    1
    14    30    31    1
    15    31    32    1
    16     2    23    1
    17    23    24   ar
    18    24    25   ar
    19    25    26   ar
    20    26    27   ar
    21    27    28   ar
    22     1     3    1
    23     3     4   ar
    24     4     5   ar
    25     5     6   ar
    26     6     7    1
    27     6     8   ar
    28     8     9   ar
    29    14    15   ar
    30    15    16   ar
    31    16    11   ar
    32    28    23   ar
    33     9     3   ar
    34    32    33    1
    35     7    10    1
