@<TRIPOS>MOLECULE
*****
 33 37 0 0 0
SMALL
GASTEIGER

@<TRIPOS>ATOM
      1 C         139.7576  144.6436  162.4785 C.ar    1  UNL1        0.2224
      2 N         140.6075  145.1313  163.6141 N.ar    1  UNL1       -0.1127
      3 N         140.5339  144.1172  164.7170 N.ar    1  UNL1       -0.1273
      4 C         139.6385  143.0027  164.2628 C.ar    1  UNL1        0.1704
      5 N         139.1588  143.3281  162.8793 N.ar    1  UNL1       -0.2796
      6 C         138.2455  142.5321  161.9949 C.3     1  UNL1        0.1574
      7 C         137.5863  141.2142  162.2754 C.3     1  UNL1        0.2299
      8 O         137.6778  140.3668  163.5098 O.3     1  UNL1       -0.4733
      9 C         138.4509  140.6280  164.7684 C.ar    1  UNL1        0.1415
     10 C         138.2683  139.5205  165.7635 C.ar    1  UNL1        0.0370
     11 C         138.9583  139.5862  167.0937 C.ar    1  UNL1        0.0031
     12 C         139.8309  140.7594  167.4288 C.ar    1  UNL1        0.0004
     13 C         140.0135  141.8668  166.4337 C.ar    1  UNL1        0.0061
     14 C         139.3235  141.8011  165.1035 C.ar    1  UNL1        0.0699
     15 C         140.5209  140.8250  168.7591 C.ar    1  UNL1        0.0031
     16 C         141.6834  139.9217  169.0464 C.ar    1  UNL1        0.0207
     17 C         142.3735  139.9874  170.3767 C.ar    1  UNL1        0.0989
     18 N         141.9009  140.9564  171.4197 N.ar    1  UNL1       -0.2423
     19 C         140.7383  141.8597  171.1323 C.ar    1  UNL1        0.0989
     20 C         140.0484  141.7940  169.8021 C.ar    1  UNL1        0.0207
     21 N         139.5441  145.3478  161.1713 N.pl3   1  UNL1       -0.2825
     22 H         138.8064  145.9925  161.0743 H       1  UNL1        0.1551
     23 C         141.1449  145.4881  157.5427 C.ar    1  UNL1        0.1480
     24 C         142.2752  144.5136  157.6936 C.ar    1  UNL1        0.0373
     25 C         142.4951  143.8172  159.0038 C.ar    1  UNL1        0.0044
     26 C         141.5847  144.0952  160.1630 C.ar    1  UNL1        0.0149
     27 C         140.4545  145.0697  160.0121 C.ar    1  UNL1        0.0535
     28 C         140.2346  145.7662  158.7019 C.ar    1  UNL1        0.0518
     29 O         140.9251  146.1846  156.2324 O.3     1  UNL1       -0.4044
     30 F         138.1603  146.3839  155.0850 F       1  UNL1       -0.1328
     31 C         139.5428  146.2843  155.6587 C.3     1  UNL1        0.5753
     32 F         139.4609  144.7878  155.5959 F       1  UNL1       -0.1328
     33 F         139.6245  147.7807  155.7215 F       1  UNL1       -0.1328
@<TRIPOS>BOND
     1    30    31    1
     2    31    32    1
     3    31    33    1
     4    31    29    1
     5    29    23    1
     6    23    24   ar
     7    24    25   ar
     8    25    26   ar
     9    26    27   ar
    10    27    21    1
    11    21     1    1
    12     1     2   ar
    13     2     3   ar
    14     3     4   ar
    15     4     5   ar
    16     5     6    1
    17     6     7    1
    18     7     8    1
    19     8     9    1
    20     9    10   ar
    21    10    11   ar
    22    11    12   ar
    23    12    15    1
    24    15    16   ar
    25    16    17   ar
    26    17    18   ar
    27    18    19   ar
    28    19    20   ar
    29    12    13   ar
    30    13    14   ar
    31    27    28   ar
    32    28    23   ar
    33     5     1   ar
    34    14     9   ar
    35    14     4    1
    36    20    15   ar
    37    21    22    1
@<TRIPOS>MOLECULE
*****
 33 37 0 0 0
SMALL
GASTEIGER

@<TRIPOS>ATOM
      1 C         139.7950  144.4965  162.4179 C.ar    1  UNL1        0.2224
      2 N         140.6367  145.0089  163.5489 N.ar    1  UNL1       -0.1127
      3 N         140.5514  144.0213  164.6746 N.ar    1  UNL1       -0.1273
      4 C         139.6571  142.8985  164.2394 C.ar    1  UNL1        0.1704
      5 N         139.1896  143.1922  162.8447 N.ar    1  UNL1       -0.2796
      6 C         138.2816  142.3777  161.9717 C.3     1  UNL1        0.1574
      7 C         137.6169  141.0682  162.2777 C.3     1  UNL1        0.2299
      8 O         137.6961  140.2500  163.5324 O.3     1  UNL1       -0.4733
      9 C         138.4594  140.5390  164.7910 C.ar    1  UNL1        0.1415
     10 C         138.2658  139.4558  165.8103 C.ar    1  UNL1        0.0370
     11 C         138.9449  139.5513  167.1443 C.ar    1  UNL1        0.0031
     12 C         139.8176  140.7300  167.4589 C.ar    1  UNL1        0.0004
     13 C         140.0113  141.8132  166.4396 C.ar    1  UNL1        0.0061
     14 C         139.3321  141.7177  165.1056 C.ar    1  UNL1        0.0699
     15 C         140.4968  140.8255  168.7930 C.ar    1  UNL1        0.0031
     16 C         140.0297  141.8322  169.8021 C.ar    1  UNL1        0.0207
     17 C         140.7088  141.9276  171.1362 C.ar    1  UNL1        0.0989
     18 N         141.8551  141.0163  171.4611 N.ar    1  UNL1       -0.2423
     19 C         142.3222  140.0096  170.4520 C.ar    1  UNL1        0.0989
     20 C         141.6431  139.9142  169.1180 C.ar    1  UNL1        0.0207
     21 N         139.5940  145.1702  161.0928 N.pl3   1  UNL1       -0.2825
     22 H         138.8290  145.7753  160.9593 H       1  UNL1        0.1551
     23 C         142.6582  143.7108  159.0361 C.ar    1  UNL1        0.1480
     24 C         142.4880  144.4255  157.7283 C.ar    1  UNL1        0.0373
     25 C         141.3530  145.3885  157.5421 C.ar    1  UNL1        0.0044
     26 C         140.3884  145.6367  158.6636 C.ar    1  UNL1        0.0149
     27 C         140.5586  144.9220  159.9714 C.ar    1  UNL1        0.0535
     28 C         141.6936  143.9590  160.1575 C.ar    1  UNL1        0.0518
     29 O         143.7932  142.7478  159.2222 O.3     1  UNL1       -0.4044
     30 F         144.0902  141.2618  161.8114 F       1  UNL1       -0.1328
     31 C         143.9417  142.0048  160.5168 C.3     1  UNL1        0.5753
     32 F         143.0998  140.8888  159.9729 F       1  UNL1       -0.1328
     33 F         144.7835  143.1208  161.0607 F       1  UNL1       -0.1328
@<TRIPOS>BOND
     1    30    31    1
     2    31    32    1
     3    31    33    1
     4    31    29    1
     5    29    23    1
     6    23    24   ar
     7    24    25   ar
     8    25    26   ar
     9    26    27   ar
    10    27    21    1
    11    21     1    1
    12     1     2   ar
    13     2     3   ar
    14     3     4   ar
    15     4     5   ar
    16     5     6    1
    17     6     7    1
    18     7     8    1
    19     8     9    1
    20     9    10   ar
    21    10    11   ar
    22    11    12   ar
    23    12    15    1
    24    15    16   ar
    25    16    17   ar
    26    17    18   ar
    27    18    19   ar
    28    19    20   ar
    29    12    13   ar
    30    13    14   ar
    31    27    28   ar
    32    28    23   ar
    33     5     1   ar
    34    14     9   ar
    35    14     4    1
    36    20    15   ar
    37    21    22    1
@<TRIPOS>MOLECULE
*****
 33 37 0 0 0
SMALL
GASTEIGER

@<TRIPOS>ATOM
      1 C         143.5567  138.5414  162.7591 C.ar    1  UNL1        0.2224
      2 N         144.3434  139.2391  163.8288 N.ar    1  UNL1       -0.1127
      3 N         143.4153  139.5319  164.9703 N.ar    1  UNL1       -0.1273
      4 C         142.0550  139.0152  164.6060 C.ar    1  UNL1        0.1704
      5 N         142.1425  138.4031  163.2394 N.ar    1  UNL1       -0.2796
      6 C         141.0565  137.7522  162.4350 C.3     1  UNL1        0.1574
      7 C         139.6149  137.5527  162.7986 C.3     1  UNL1        0.2299
      8 O         138.9034  137.9548  164.0563 O.3     1  UNL1       -0.4733
      9 C         139.4575  138.6557  165.2612 C.ar    1  UNL1        0.1415
     10 C         138.4013  138.8702  166.3045 C.ar    1  UNL1        0.0370
     11 C         138.7478  139.5567  167.5924 C.ar    1  UNL1        0.0031
     12 C         140.1505  140.0286  167.8370 C.ar    1  UNL1        0.0004
     13 C         141.2067  139.8141  166.7937 C.ar    1  UNL1        0.0061
     14 C         140.8602  139.1277  165.5058 C.ar    1  UNL1        0.0699
     15 C         140.4969  140.7151  169.1250 C.ar    1  UNL1        0.0031
     16 C         139.7836  141.9743  169.5192 C.ar    1  UNL1        0.0207
     17 C         140.1301  142.6608  170.8071 C.ar    1  UNL1        0.0989
     18 N         141.1899  142.0879  171.7008 N.ar    1  UNL1       -0.2423
     19 C         141.9032  140.8286  171.3066 C.ar    1  UNL1        0.0989
     20 C         141.5567  140.1422  170.0186 C.ar    1  UNL1        0.0207
     21 N         144.0905  138.0657  161.4405 N.pl3   1  UNL1       -0.2825
     22 H         144.8200  137.4051  161.4142 H       1  UNL1        0.1551
     23 C         142.4818  138.1777  157.8143 C.ar    1  UNL1        0.1480
     24 C         142.3578  139.6579  157.6048 C.ar    1  UNL1        0.0373
     25 C         142.8114  140.6072  158.6739 C.ar    1  UNL1        0.0044
     26 C         143.3890  140.0765  159.9524 C.ar    1  UNL1        0.0149
     27 C         143.5130  138.5964  160.1619 C.ar    1  UNL1        0.0535
     28 C         143.0593  137.6470  159.0928 C.ar    1  UNL1        0.0518
     29 O         142.0282  137.2284  156.7452 O.3     1  UNL1       -0.4044
     30 F         143.9627  135.2617  155.5662 F       1  UNL1       -0.1328
     31 C         142.9954  136.2450  156.1557 C.3     1  UNL1        0.5753
     32 F         143.7555  137.3724  155.5222 F       1  UNL1       -0.1328
     33 F         142.2353  135.1176  156.7892 F       1  UNL1       -0.1328
@<TRIPOS>BOND
     1    30    31    1
     2    31    32    1
     3    31    33    1
     4    31    29    1
     5    29    23    1
     6    23    24   ar
     7    24    25   ar
     8    25    26   ar
     9    26    27   ar
    10    27    21    1
    11    21     1    1
    12     1     2   ar
    13     2     3   ar
    14     3     4   ar
    15     4     5   ar
    16     5     6    1
    17     6     7    1
    18     7     8    1
    19     8     9    1
    20     9    10   ar
    21    10    11   ar
    22    11    12   ar
    23    12    15    1
    24    15    16   ar
    25    16    17   ar
    26    17    18   ar
    27    18    19   ar
    28    19    20   ar
    29    12    13   ar
    30    13    14   ar
    31    27    28   ar
    32    28    23   ar
    33     5     1   ar
    34    14     9   ar
    35    14     4    1
    36    20    15   ar
    37    21    22    1
@<TRIPOS>MOLECULE
*****
 33 37 0 0 0
SMALL
GASTEIGER

@<TRIPOS>ATOM
      1 C         143.2632  138.2404  162.7176 C.ar    1  UNL1        0.2224
      2 N         144.1253  138.8834  163.7632 N.ar    1  UNL1       -0.1127
      3 N         143.2495  139.2519  164.9238 N.ar    1  UNL1       -0.1273
      4 C         141.8460  138.8366  164.5955 C.ar    1  UNL1        0.1704
      5 N         141.8545  138.2115  163.2320 N.ar    1  UNL1       -0.2796
      6 C         140.7039  137.6391  162.4584 C.3     1  UNL1        0.1574
      7 C         139.2605  137.5506  162.8572 C.3     1  UNL1        0.2299
      8 O         138.6115  138.0125  164.1282 O.3     1  UNL1       -0.4733
      9 C         139.2453  138.6771  165.3142 C.ar    1  UNL1        0.1415
     10 C         138.2334  138.9765  166.3803 C.ar    1  UNL1        0.0370
     11 C         138.6611  139.6427  167.6543 C.ar    1  UNL1        0.0031
     12 C         140.1006  140.0095  167.8623 C.ar    1  UNL1        0.0004
     13 C         141.1125  139.7101  166.7962 C.ar    1  UNL1        0.0061
     14 C         140.6848  139.0439  165.5222 C.ar    1  UNL1        0.0699
     15 C         140.5283  140.6757  169.1364 C.ar    1  UNL1        0.0031
     16 C         139.8498  141.9346  169.5889 C.ar    1  UNL1        0.0207
     17 C         140.2775  142.6009  170.8630 C.ar    1  UNL1        0.0989
     18 N         141.3837  142.0081  171.6846 N.ar    1  UNL1       -0.2423
     19 C         142.0622  140.7492  171.2320 C.ar    1  UNL1        0.0989
     20 C         141.6345  140.0830  169.9580 C.ar    1  UNL1        0.0207
     21 N         143.7282  137.7180  161.3906 N.pl3   1  UNL1       -0.2825
     22 H         144.2495  136.8841  161.3451 H       1  UNL1        0.1551
     23 C         143.3734  140.6796  158.7728 C.ar    1  UNL1        0.1480
     24 C         142.7402  139.9624  157.6175 C.ar    1  UNL1        0.0373
     25 C         142.4364  138.4970  157.7199 C.ar    1  UNL1        0.0044
     26 C         142.7657  137.7489  158.9776 C.ar    1  UNL1        0.0149
     27 C         143.3989  138.4661  160.1329 C.ar    1  UNL1        0.0535
     28 C         143.7027  139.9315  160.0305 C.ar    1  UNL1        0.0518
     29 O         143.6772  142.1450  158.6704 O.3     1  UNL1       -0.4044
     30 F         142.7828  144.0174  160.8370 F       1  UNL1       -0.1328
     31 C         143.2300  143.0811  159.7537 C.3     1  UNL1        0.5753
     32 F         144.5944  143.0157  160.3736 F       1  UNL1       -0.1328
     33 F         141.8656  143.1467  159.1339 F       1  UNL1       -0.1328
@<TRIPOS>BOND
     1    30    31    1
     2    31    32    1
     3    31    33    1
     4    31    29    1
     5    29    23    1
     6    23    24   ar
     7    24    25   ar
     8    25    26   ar
     9    26    27   ar
    10    27    21    1
    11    21     1    1
    12     1     2   ar
    13     2     3   ar
    14     3     4   ar
    15     4     5   ar
    16     5     6    1
    17     6     7    1
    18     7     8    1
    19     8     9    1
    20     9    10   ar
    21    10    11   ar
    22    11    12   ar
    23    12    15    1
    24    15    16   ar
    25    16    17   ar
    26    17    18   ar
    27    18    19   ar
    28    19    20   ar
    29    12    13   ar
    30    13    14   ar
    31    27    28   ar
    32    28    23   ar
    33     5     1   ar
    34    14     9   ar
    35    14     4    1
    36    20    15   ar
    37    21    22    1
@<TRIPOS>MOLECULE
*****
 33 37 0 0 0
SMALL
GASTEIGER

@<TRIPOS>ATOM
      1 C         142.9656  143.4504  162.2286 C.ar    1  UNL1        0.2224
      2 N         142.3609  144.2413  163.3505 N.ar    1  UNL1       -0.1127
      3 N         142.3066  143.3595  164.5627 N.ar    1  UNL1       -0.1273
      4 C         142.8779  142.0235  164.1899 C.ar    1  UNL1        0.1704
      5 N         143.2851  142.0798  162.7474 N.ar    1  UNL1       -0.2796
      6 C         143.9052  141.0023  161.9080 C.3     1  UNL1        0.1574
      7 C         144.2711  139.6024  162.3038 C.3     1  UNL1        0.2299
      8 O         144.1073  138.9345  163.6369 O.3     1  UNL1       -0.4733
      9 C         143.5372  139.5012  164.9033 C.ar    1  UNL1        0.1415
     10 C         143.5572  138.4922  166.0129 C.ar    1  UNL1        0.0370
     11 C         143.0299  138.8579  167.3687 C.ar    1  UNL1        0.0031
     12 C         142.4828  140.2327  167.6149 C.ar    1  UNL1        0.0004
     13 C         142.4628  141.2418  166.5052 C.ar    1  UNL1        0.0061
     14 C         142.9900  140.8760  165.1494 C.ar    1  UNL1        0.0699
     15 C         141.9555  140.5984  168.9708 C.ar    1  UNL1        0.0031
     16 C         140.7964  139.8452  169.5529 C.ar    1  UNL1        0.0207
     17 C         140.2691  140.2110  170.9088 C.ar    1  UNL1        0.0989
     18 N         140.9012  141.3299  171.6825 N.ar    1  UNL1       -0.2423
     19 C         142.0604  142.0831  171.1002 C.ar    1  UNL1        0.0989
     20 C         142.5876  141.7174  169.7444 C.ar    1  UNL1        0.0207
     21 N         143.2083  143.9436  160.8329 N.pl3   1  UNL1       -0.2825
     22 H         144.0819  144.3280  160.5915 H       1  UNL1        0.1551
     23 C         139.6439  143.3633  159.1873 C.ar    1  UNL1        0.1480
     24 C         139.9429  143.6662  157.7490 C.ar    1  UNL1        0.0373
     25 C         141.3305  144.0615  157.3386 C.ar    1  UNL1        0.0044
     26 C         142.4189  144.1540  158.3666 C.ar    1  UNL1        0.0149
     27 C         142.1199  143.8511  159.8049 C.ar    1  UNL1        0.0535
     28 C         140.7323  143.4558  160.2153 C.ar    1  UNL1        0.0518
     29 O         138.2563  142.9680  159.5977 O.3     1  UNL1       -0.4044
     30 F         137.8553  140.8623  161.6966 F       1  UNL1       -0.1328
     31 C         138.0558  141.9152  160.6471 C.3     1  UNL1        0.5753
     32 F         137.5732  142.9628  161.6060 F       1  UNL1       -0.1328
     33 F         138.5383  140.8674  159.6883 F       1  UNL1       -0.1328
@<TRIPOS>BOND
     1    30    31    1
     2    31    32    1
     3    31    33    1
     4    31    29    1
     5    29    23    1
     6    23    24   ar
     7    24    25   ar
     8    25    26   ar
     9    26    27   ar
    10    27    21    1
    11    21     1    1
    12     1     2   ar
    13     2     3   ar
    14     3     4   ar
    15     4     5   ar
    16     5     6    1
    17     6     7    1
    18     7     8    1
    19     8     9    1
    20     9    10   ar
    21    10    11   ar
    22    11    12   ar
    23    12    15    1
    24    15    16   ar
    25    16    17   ar
    26    17    18   ar
    27    18    19   ar
    28    19    20   ar
    29    12    13   ar
    30    13    14   ar
    31    27    28   ar
    32    28    23   ar
    33     5     1   ar
    34    14     9   ar
    35    14     4    1
    36    20    15   ar
    37    21    22    1
@<TRIPOS>MOLECULE
*****
 33 37 0 0 0
SMALL
GASTEIGER

@<TRIPOS>ATOM
      1 C         143.1790  139.6480  162.3126 C.ar    1  UNL1        0.2224
      2 N         143.8677  140.4284  163.3927 N.ar    1  UNL1       -0.1127
      3 N         142.9692  140.4501  164.5937 N.ar    1  UNL1       -0.1273
      4 C         141.7252  139.6831  164.2557 C.ar    1  UNL1        0.1704
      5 N         141.8549  139.1875  162.8460 N.ar    1  UNL1       -0.2796
      6 C         140.8801  138.3738  162.0473 C.3     1  UNL1        0.1574
      7 C         139.5349  137.8549  162.4612 C.3     1  UNL1        0.2299
      8 O         138.8323  138.0216  163.7760 O.3     1  UNL1       -0.4733
      9 C         139.3013  138.7482  165.0016 C.ar    1  UNL1        0.1415
     10 C         138.2879  138.6726  166.1049 C.ar    1  UNL1        0.0370
     11 C         138.5620  139.3365  167.4217 C.ar    1  UNL1        0.0031
     12 C         139.8495  140.0760  167.6352 C.ar    1  UNL1        0.0004
     13 C         140.8629  140.1516  166.5319 C.ar    1  UNL1        0.0061
     14 C         140.5888  139.4877  165.2151 C.ar    1  UNL1        0.0699
     15 C         140.1236  140.7399  168.9521 C.ar    1  UNL1        0.0031
     16 C         140.5265  139.9151  170.1384 C.ar    1  UNL1        0.0207
     17 C         140.8006  140.5791  171.4553 C.ar    1  UNL1        0.0989
     18 N         140.6717  142.0678  171.5859 N.ar    1  UNL1       -0.2423
     19 C         140.2688  142.8926  170.3995 C.ar    1  UNL1        0.0989
     20 C         139.9947  142.2287  169.0827 C.ar    1  UNL1        0.0207
     21 N         143.7195  139.3760  160.9401 N.pl3   1  UNL1       -0.2825
     22 H         144.2257  138.5499  160.7652 H       1  UNL1        0.1551
     23 C         142.9638  142.7839  159.0520 C.ar    1  UNL1        0.1480
     24 C         143.0275  142.3358  157.6219 C.ar    1  UNL1        0.0373
     25 C         143.3218  140.9011  157.2979 C.ar    1  UNL1        0.0044
     26 C         143.5525  139.9145  158.4039 C.ar    1  UNL1        0.0149
     27 C         143.4889  140.3626  159.8340 C.ar    1  UNL1        0.0535
     28 C         143.1945  141.7973  160.1580 C.ar    1  UNL1        0.0518
     29 O         142.6695  144.2186  159.3760 O.3     1  UNL1       -0.4044
     30 F         140.1192  144.9471  160.7780 F       1  UNL1       -0.1328
     31 C         141.3944  144.5829  160.0770 C.3     1  UNL1        0.5753
     32 F         142.1588  144.8164  161.3463 F       1  UNL1       -0.1328
     33 F         140.6298  144.3493  158.8077 F       1  UNL1       -0.1328
@<TRIPOS>BOND
     1    30    31    1
     2    31    32    1
     3    31    33    1
     4    31    29    1
     5    29    23    1
     6    23    24   ar
     7    24    25   ar
     8    25    26   ar
     9    26    27   ar
    10    27    21    1
    11    21     1    1
    12     1     2   ar
    13     2     3   ar
    14     3     4   ar
    15     4     5   ar
    16     5     6    1
    17     6     7    1
    18     7     8    1
    19     8     9    1
    20     9    10   ar
    21    10    11   ar
    22    11    12   ar
    23    12    15    1
    24    15    16   ar
    25    16    17   ar
    26    17    18   ar
    27    18    19   ar
    28    19    20   ar
    29    12    13   ar
    30    13    14   ar
    31    27    28   ar
    32    28    23   ar
    33     5     1   ar
    34    14     9   ar
    35    14     4    1
    36    20    15   ar
    37    21    22    1
@<TRIPOS>MOLECULE
*****
 33 37 0 0 0
SMALL
GASTEIGER

@<TRIPOS>ATOM
      1 C         141.5295  144.8337  161.4354 C.ar    1  UNL1        0.2224
      2 N         140.5190  145.2920  162.4448 N.ar    1  UNL1       -0.1127
      3 N         140.6490  144.4211  163.6592 N.ar    1  UNL1       -0.1273
      4 C         141.7399  143.4246  163.4002 C.ar    1  UNL1        0.1704
      5 N         142.2840  143.6797  162.0259 N.ar    1  UNL1       -0.2796
      6 C         143.3818  142.9547  161.3053 C.3     1  UNL1        0.1574
      7 C         144.2066  141.7956  161.7811 C.3     1  UNL1        0.2299
      8 O         144.1372  141.0754  163.0950 O.3     1  UNL1       -0.4733
      9 C         143.2260  141.3361  164.2577 C.ar    1  UNL1        0.1415
     10 C         143.4871  140.3802  165.3837 C.ar    1  UNL1        0.0370
     11 C         142.6811  140.4698  166.6456 C.ar    1  UNL1        0.0031
     12 C         141.6142  141.5153  166.7814 C.ar    1  UNL1        0.0004
     13 C         141.3531  142.4713  165.6554 C.ar    1  UNL1        0.0061
     14 C         142.1591  142.3817  164.3935 C.ar    1  UNL1        0.0699
     15 C         140.8082  141.6049  168.0434 C.ar    1  UNL1        0.0031
     16 C         139.9776  140.4374  168.4872 C.ar    1  UNL1        0.0207
     17 C         139.1716  140.5270  169.7492 C.ar    1  UNL1        0.0989
     18 N         139.1963  141.7840  170.5672 N.ar    1  UNL1       -0.2423
     19 C         140.0270  142.9515  170.1233 C.ar    1  UNL1        0.0989
     20 C         140.8329  142.8619  168.8614 C.ar    1  UNL1        0.0207
     21 N         141.7472  145.4257  160.0744 N.pl3   1  UNL1       -0.2825
     22 H         142.3821  146.1688  159.9566 H       1  UNL1        0.1551
     23 C         139.5732  145.2855  156.7572 C.ar    1  UNL1        0.1480
     24 C         139.4982  143.8047  156.5297 C.ar    1  UNL1        0.0373
     25 C         140.1729  142.8643  157.4839 C.ar    1  UNL1        0.0044
     26 C         140.9225  143.4046  158.6654 C.ar    1  UNL1        0.0149
     27 C         140.9975  144.8854  158.8929 C.ar    1  UNL1        0.0535
     28 C         140.3228  145.8258  157.9387 C.ar    1  UNL1        0.0518
     29 O         138.8985  146.2259  155.8030 O.3     1  UNL1       -0.4044
     30 F         140.4540  148.4659  154.5527 F       1  UNL1       -0.1328
     31 C         139.6762  147.3459  155.1778 C.3     1  UNL1        0.5753
     32 F         138.6653  148.3311  155.6853 F       1  UNL1       -0.1328
     33 F         140.6872  146.3607  154.6704 F       1  UNL1       -0.1328
@<TRIPOS>BOND
     1    30    31    1
     2    31    32    1
     3    31    33    1
     4    31    29    1
     5    29    23    1
     6    23    24   ar
     7    24    25   ar
     8    25    26   ar
     9    26    27   ar
    10    27    21    1
    11    21     1    1
    12     1     2   ar
    13     2     3   ar
    14     3     4   ar
    15     4     5   ar
    16     5     6    1
    17     6     7    1
    18     7     8    1
    19     8     9    1
    20     9    10   ar
    21    10    11   ar
    22    11    12   ar
    23    12    15    1
    24    15    16   ar
    25    16    17   ar
    26    17    18   ar
    27    18    19   ar
    28    19    20   ar
    29    12    13   ar
    30    13    14   ar
    31    27    28   ar
    32    28    23   ar
    33     5     1   ar
    34    14     9   ar
    35    14     4    1
    36    20    15   ar
    37    21    22    1
@<TRIPOS>MOLECULE
*****
 33 37 0 0 0
SMALL
GASTEIGER

@<TRIPOS>ATOM
      1 C         139.4989  143.5738  160.9111 C.ar    1  UNL1        0.2224
      2 N         138.3727  143.3778  161.8823 N.ar    1  UNL1       -0.1127
      3 N         138.9669  143.0894  163.2291 N.ar    1  UNL1       -0.1273
      4 C         140.4604  143.1071  163.0902 C.ar    1  UNL1        0.1704
      5 N         140.7891  143.4065  161.6576 N.ar    1  UNL1       -0.2796
      6 C         142.1383  143.5316  161.0142 C.3     1  UNL1        0.1574
      7 C         143.4920  143.3883  161.6444 C.3     1  UNL1        0.2299
      8 O         143.8306  143.0844  163.0737 O.3     1  UNL1       -0.4733
      9 C         142.8995  142.8488  164.2258 C.ar    1  UNL1        0.1415
     10 C         143.6539  142.5758  165.4932 C.ar    1  UNL1        0.0370
     11 C         142.9083  142.3129  166.7680 C.ar    1  UNL1        0.0031
     12 C         141.4083  142.3230  166.7753 C.ar    1  UNL1        0.0004
     13 C         140.6540  142.5960  165.5079 C.ar    1  UNL1        0.0061
     14 C         141.3995  142.8589  164.2332 C.ar    1  UNL1        0.0699
     15 C         140.6628  142.0601  168.0501 C.ar    1  UNL1        0.0031
     16 C         140.5986  143.1166  169.1130 C.ar    1  UNL1        0.0207
     17 C         139.8531  142.8537  170.3878 C.ar    1  UNL1        0.0989
     18 N         139.1717  141.5343  170.5997 N.ar    1  UNL1       -0.2423
     19 C         139.2359  140.4778  169.5368 C.ar    1  UNL1        0.0989
     20 C         139.9814  140.7407  168.2620 C.ar    1  UNL1        0.0207
     21 N         139.3593  143.8828  159.4499 N.pl3   1  UNL1       -0.2825
     22 H         139.2253  144.8122  159.1540 H       1  UNL1        0.1551
     23 C         138.2347  140.9572  157.0156 C.ar    1  UNL1        0.1480
     24 C         139.5531  140.5621  156.4192 C.ar    1  UNL1        0.0373
     25 C         140.8069  141.2740  156.8331 C.ar    1  UNL1        0.0044
     26 C         140.7423  142.3808  157.8433 C.ar    1  UNL1        0.0149
     27 C         139.4239  142.7760  158.4397 C.ar    1  UNL1        0.0535
     28 C         138.1701  142.0641  158.0259 C.ar    1  UNL1        0.0518
     29 O         136.9808  140.2454  156.6018 O.3     1  UNL1       -0.4044
     30 F         134.6727  141.8008  155.4822 F       1  UNL1       -0.1328
     31 C         135.8268  141.0231  156.0420 C.3     1  UNL1        0.5753
     32 F         134.9084  140.3753  157.0354 F       1  UNL1       -0.1328
     33 F         136.7452  141.6709  155.0485 F       1  UNL1       -0.1328
@<TRIPOS>BOND
     1    30    31    1
     2    31    32    1
     3    31    33    1
     4    31    29    1
     5    29    23    1
     6    23    24   ar
     7    24    25   ar
     8    25    26   ar
     9    26    27   ar
    10    27    21    1
    11    21     1    1
    12     1     2   ar
    13     2     3   ar
    14     3     4   ar
    15     4     5   ar
    16     5     6    1
    17     6     7    1
    18     7     8    1
    19     8     9    1
    20     9    10   ar
    21    10    11   ar
    22    11    12   ar
    23    12    15    1
    24    15    16   ar
    25    16    17   ar
    26    17    18   ar
    27    18    19   ar
    28    19    20   ar
    29    12    13   ar
    30    13    14   ar
    31    27    28   ar
    32    28    23   ar
    33     5     1   ar
    34    14     9   ar
    35    14     4    1
    36    20    15   ar
    37    21    22    1
@<TRIPOS>MOLECULE
*****
 33 37 0 0 0
SMALL
GASTEIGER

@<TRIPOS>ATOM
      1 C         143.1472  138.6572  160.8954 C.ar    1  UNL1        0.2224
      2 N         142.3425  137.7926  161.8200 N.ar    1  UNL1       -0.1127
      3 N         142.2650  138.4826  163.1497 N.ar    1  UNL1       -0.1273
      4 C         143.0218  139.7736  163.0467 C.ar    1  UNL1        0.1704
      5 N         143.5670  139.8814  161.6535 N.ar    1  UNL1       -0.2796
      6 C         144.3906  140.9826  161.0542 C.3     1  UNL1        0.1574
      7 C         144.8724  142.2478  161.7000 C.3     1  UNL1        0.2299
      8 O         144.6495  142.7243  163.1048 O.3     1  UNL1       -0.4733
      9 C         143.8899  142.0534  164.2106 C.ar    1  UNL1        0.1415
     10 C         143.9110  142.8737  165.4662 C.ar    1  UNL1        0.0370
     11 C         143.2076  142.3808  166.6960 C.ar    1  UNL1        0.0031
     12 C         142.4832  141.0676  166.6701 C.ar    1  UNL1        0.0004
     13 C         142.4621  140.2473  165.4145 C.ar    1  UNL1        0.0061
     14 C         143.1655  140.7402  164.1848 C.ar    1  UNL1        0.0699
     15 C         141.7798  140.5747  167.9000 C.ar    1  UNL1        0.0031
     16 C         142.5515  139.8609  168.9700 C.ar    1  UNL1        0.0207
     17 C         141.8481  139.3680  170.1998 C.ar    1  UNL1        0.0989
     18 N         140.3731  139.5890  170.3596 N.ar    1  UNL1       -0.2423
     19 C         139.6015  140.3029  169.2895 C.ar    1  UNL1        0.0989
     20 C         140.3048  140.7957  168.0597 C.ar    1  UNL1        0.0207
     21 N         143.4746  138.3511  159.4638 N.pl3   1  UNL1       -0.2825
     22 H         144.4089  138.3823  159.1550 H       1  UNL1        0.1551
     23 C         141.5340  136.6450  156.4517 C.ar    1  UNL1        0.1480
     24 C         140.1862  137.2906  156.5808 C.ar    1  UNL1        0.0373
     25 C         139.9346  138.2898  157.6709 C.ar    1  UNL1        0.0044
     26 C         141.0307  138.6433  158.6319 C.ar    1  UNL1        0.0149
     27 C         142.3785  137.9976  158.5029 C.ar    1  UNL1        0.0535
     28 C         142.6301  136.9984  157.4127 C.ar    1  UNL1        0.0518
     29 O         141.7856  135.6458  155.3616 O.3     1  UNL1       -0.4044
     30 F         144.0020  133.6438  155.6440 F       1  UNL1       -0.1328
     31 C         142.8937  134.6448  155.5028 C.3     1  UNL1        0.5753
     32 F         143.7929  135.5250  154.6862 F       1  UNL1       -0.1328
     33 F         141.9947  133.7645  156.3193 F       1  UNL1       -0.1328
@<TRIPOS>BOND
     1    30    31    1
     2    31    32    1
     3    31    33    1
     4    31    29    1
     5    29    23    1
     6    23    24   ar
     7    24    25   ar
     8    25    26   ar
     9    26    27   ar
    10    27    21    1
    11    21     1    1
    12     1     2   ar
    13     2     3   ar
    14     3     4   ar
    15     4     5   ar
    16     5     6    1
    17     6     7    1
    18     7     8    1
    19     8     9    1
    20     9    10   ar
    21    10    11   ar
    22    11    12   ar
    23    12    15    1
    24    15    16   ar
    25    16    17   ar
    26    17    18   ar
    27    18    19   ar
    28    19    20   ar
    29    12    13   ar
    30    13    14   ar
    31    27    28   ar
    32    28    23   ar
    33     5     1   ar
    34    14     9   ar
    35    14     4    1
    36    20    15   ar
    37    21    22    1
