@<TRIPOS>MOLECULE
*****
 38 42 0 0 0
SMALL
GASTEIGER

@<TRIPOS>ATOM
      1 C         139.6222  143.9320  158.5883 C.3     1  UNL1        0.0759
      2 C         140.3793  144.8846  159.4654 C.3     1  UNL1        0.0371
      3 C         140.3645  144.7060  160.9547 C.3     1  UNL1        0.0737
      4 N         139.5927  143.5749  161.5668 N.3     1  UNL1       -0.2750
      5 C         138.8355  142.6222  160.6897 C.3     1  UNL1        0.0737
      6 C         138.8503  142.8008  159.2004 C.3     1  UNL1        0.0371
      7 C         139.5779  143.3963  163.0561 C.3     1  UNL1        0.0487
      8 C         138.7497  144.6411  162.9347 C.3     1  UNL1        0.0161
      9 C         140.4112  142.2136  162.6602 C.3     1  UNL1        0.0362
     10 C         140.9421  141.2846  163.7114 C.3     1  UNL1        0.0951
     11 N         140.6398  141.5383  165.1585 N.am    1  UNL1       -0.2758
     12 C         141.1707  140.6093  166.2098 C.2     1  UNL1        0.2542
     13 O         142.0040  139.4266  165.8139 O.2     1  UNL1       -0.2697
     14 C         139.8064  142.7210  165.5544 C.3     1  UNL1        0.0951
     15 C         139.2755  143.6501  164.5032 C.3     1  UNL1        0.0362
     16 C         140.8682  140.8631  167.6569 C.ar    1  UNL1        0.1099
     17 C         141.7973  141.7043  168.4810 C.ar    1  UNL1       -0.0058
     18 C         143.0290  142.2917  167.8581 C.3     1  UNL1        0.0316
     19 C         141.4948  141.9580  169.9282 C.ar    1  UNL1        0.0730
     20 C         140.2632  141.3706  170.5511 C.ar    1  UNL1        0.3010
     21 N         139.3341  140.5295  169.7269 N.ar    1  UNL1       -0.1606
     22 O         138.1024  139.9420  170.3499 O.co2   1  UNL1       -0.6190
     23 C         139.6366  140.2757  168.2799 C.ar    1  UNL1        0.2180
     24 C         138.7075  139.4346  167.4557 C.3     1  UNL1        0.1093
     25 N         139.6370  144.1106  157.0990 N.pl3   1  UNL1       -0.3039
     26 C         138.7035  143.3116  156.2386 C.ar    1  UNL1        0.0481
     27 C         137.3399  143.8458  155.9145 C.ar    1  UNL1        0.0145
     28 C         136.4064  143.0468  155.0541 C.ar    1  UNL1        0.0013
     29 C         136.8367  141.7137  154.5177 C.ar    1  UNL1        0.0001
     30 C         138.2003  141.1795  154.8418 C.ar    1  UNL1        0.0013
     31 C         139.1337  141.9785  155.7022 C.ar    1  UNL1        0.0145
     32 C         140.5852  145.0880  156.4702 C.3     1  UNL1        0.1376
     33 C         138.2077  149.7941  156.1853 C.3     1  UNL1        0.0594
     34 C         138.9823  148.5628  155.8198 C.ar    1  UNL1        0.0883
     35 N         139.2771  147.4049  156.7269 N.ar    1  UNL1       -0.2453
     36 C         140.0752  146.3996  155.9508 C.ar    1  UNL1        0.0856
     37 C         140.2737  146.9360  154.5641 C.ar    1  UNL1        0.0530
     38 S         139.5983  148.2729  154.4832 S.2     1  UNL1       -0.0705
@<TRIPOS>UNITY_ATOM_ATTR
21 1
charge 1
22 1
charge -1
@<TRIPOS>BOND
     1    33    34    1
     2    34    35   ar
     3    35    36   ar
     4    36    32    1
     5    32    25    1
     6    25    26    1
     7    26    27   ar
     8    27    28   ar
     9    28    29   ar
    10    29    30   ar
    11    30    31   ar
    12    25     1    1
    13     1     2    1
    14     2     3    1
    15     3     4    1
    16     4     7    1
    17     7     8    1
    18     7     9    1
    19     9    10    1
    20    10    11    1
    21    11    12   am
    22    12    13    2
    23    12    16    1
    24    16    17   ar
    25    17    18    1
    26    17    19   ar
    27    19    20   ar
    28    20    21   ar
    29    21    22    1
    30    21    23   ar
    31    23    24    1
    32    11    14    1
    33    14    15    1
    34     4     5    1
    35     5     6    1
    36    36    37   ar
    37    37    38   ar
    38    38    34   ar
    39    31    26   ar
    40     6     1    1
    41    15     7    1
    42    23    16   ar
@<TRIPOS>MOLECULE
*****
 38 42 0 0 0
SMALL
GASTEIGER

@<TRIPOS>ATOM
      1 C         139.6473  143.8649  158.6472 C.3     1  UNL1        0.0759
      2 C         140.4549  144.8005  159.4972 C.3     1  UNL1        0.0371
      3 C         140.4451  144.6552  160.9901 C.3     1  UNL1        0.0737
      4 N         139.6277  143.5743  161.6331 N.3     1  UNL1       -0.2750
      5 C         138.8200  142.6386  160.7831 C.3     1  UNL1        0.0737
      6 C         138.8298  142.7839  159.2902 C.3     1  UNL1        0.0371
      7 C         139.6179  143.4290  163.1260 C.3     1  UNL1        0.0487
      8 C         138.8059  144.6818  162.9809 C.3     1  UNL1        0.0161
      9 C         140.4332  142.2266  162.7525 C.3     1  UNL1        0.0362
     10 C         140.9568  141.3140  163.8217 C.3     1  UNL1        0.0951
     11 N         140.6651  141.6038  165.2642 N.am    1  UNL1       -0.2758
     12 C         141.1887  140.6911  166.3334 C.2     1  UNL1        0.2542
     13 O         142.0040  139.4888  165.9599 O.2     1  UNL1       -0.2697
     14 C         139.8497  142.8061  165.6376 C.3     1  UNL1        0.0951
     15 C         139.3261  143.7187  164.5685 C.3     1  UNL1        0.0362
     16 C         140.8968  140.9810  167.7758 C.ar    1  UNL1        0.1099
     17 C         139.6699  140.4096  168.4224 C.ar    1  UNL1       -0.0058
     18 C         138.7347  139.5482  167.6264 C.3     1  UNL1        0.0316
     19 C         139.3781  140.6995  169.8650 C.ar    1  UNL1        0.0730
     20 C         140.3133  141.5608  170.6609 C.ar    1  UNL1        0.3010
     21 N         141.5403  142.1323  170.0143 N.ar    1  UNL1       -0.1606
     22 O         142.4755  142.9936  170.8103 O.co2   1  UNL1       -0.6190
     23 C         141.8320  141.8424  168.5718 C.ar    1  UNL1        0.2180
     24 C         143.0590  142.4138  167.9252 C.3     1  UNL1        0.1093
     25 N         139.6571  144.0102  157.1543 N.pl3   1  UNL1       -0.3039
     26 C         138.7162  143.1971  156.3154 C.ar    1  UNL1        0.0481
     27 C         137.3723  143.7508  155.9450 C.ar    1  UNL1        0.0145
     28 C         136.4315  142.9377  155.1061 C.ar    1  UNL1        0.0013
     29 C         136.8346  141.5709  154.6377 C.ar    1  UNL1        0.0001
     30 C         138.1786  141.0172  155.0082 C.ar    1  UNL1        0.0013
     31 C         139.1193  141.8303  155.8471 C.ar    1  UNL1        0.0145
     32 C         140.6077  144.9686  156.5003 C.3     1  UNL1        0.1376
     33 C         138.2172  149.6687  156.2243 C.3     1  UNL1        0.0594
     34 C         139.0106  148.4483  155.8622 C.ar    1  UNL1        0.0883
     35 N         139.2794  147.2741  156.7562 N.ar    1  UNL1       -0.2453
     36 C         140.1094  146.2879  155.9890 C.ar    1  UNL1        0.0856
     37 C         140.3535  146.8525  154.6210 C.ar    1  UNL1        0.0530
     38 S         139.6745  148.1876  154.5426 S.2     1  UNL1       -0.0705
@<TRIPOS>UNITY_ATOM_ATTR
21 1
charge 1
22 1
charge -1
@<TRIPOS>BOND
     1    33    34    1
     2    34    35   ar
     3    35    36   ar
     4    36    32    1
     5    32    25    1
     6    25    26    1
     7    26    27   ar
     8    27    28   ar
     9    28    29   ar
    10    29    30   ar
    11    30    31   ar
    12    25     1    1
    13     1     2    1
    14     2     3    1
    15     3     4    1
    16     4     7    1
    17     7     8    1
    18     7     9    1
    19     9    10    1
    20    10    11    1
    21    11    12   am
    22    12    13    2
    23    12    16    1
    24    16    17   ar
    25    17    18    1
    26    17    19   ar
    27    19    20   ar
    28    20    21   ar
    29    21    22    1
    30    21    23   ar
    31    23    24    1
    32    11    14    1
    33    14    15    1
    34     4     5    1
    35     5     6    1
    36    36    37   ar
    37    37    38   ar
    38    38    34   ar
    39    31    26   ar
    40     6     1    1
    41    15     7    1
    42    23    16   ar
@<TRIPOS>MOLECULE
*****
 38 42 0 0 0
SMALL
GASTEIGER

@<TRIPOS>ATOM
      1 C         138.3072  141.4336  158.3443 C.3     1  UNL1        0.0759
      2 C         138.3234  142.5413  159.3556 C.3     1  UNL1        0.0371
      3 C         138.5896  142.2348  160.7996 C.3     1  UNL1        0.0737
      4 N         138.8398  140.8205  161.2323 N.3     1  UNL1       -0.2750
      5 C         138.8236  139.7127  160.2210 C.3     1  UNL1        0.0737
      6 C         138.5574  140.0193  158.7770 C.3     1  UNL1        0.0371
      7 C         139.1060  140.5140  162.6763 C.3     1  UNL1        0.0487
      8 C         137.8987  139.6542  162.4458 C.3     1  UNL1        0.0161
      9 C         140.2209  141.4803  162.4053 C.3     1  UNL1        0.0362
     10 C         141.1827  141.8414  163.4983 C.3     1  UNL1        0.0951
     11 N         141.0297  141.2362  164.8622 N.am    1  UNL1       -0.2758
     12 C         141.9915  141.5974  165.9551 C.2     1  UNL1        0.2542
     13 O         143.1064  142.5636  165.6841 O.2     1  UNL1       -0.2697
     14 C         139.9149  140.2700  165.1332 C.3     1  UNL1        0.0951
     15 C         138.9530  139.9088  164.0402 C.3     1  UNL1        0.0362
     16 C         141.8384  140.9922  167.3191 C.ar    1  UNL1        0.1099
     17 C         142.5105  139.6906  167.6419 C.ar    1  UNL1       -0.0058
     18 C         143.3358  138.9942  166.6007 C.3     1  UNL1        0.0316
     19 C         142.3574  139.0855  169.0059 C.ar    1  UNL1        0.0730
     20 C         141.5321  139.7819  170.0470 C.ar    1  UNL1        0.3010
     21 N         140.8600  141.0835  169.7241 N.ar    1  UNL1       -0.1606
     22 O         140.0348  141.7799  170.7653 O.co2   1  UNL1       -0.6190
     23 C         141.0132  141.6886  168.3602 C.ar    1  UNL1        0.2180
     24 C         140.3411  142.9901  168.0374 C.3     1  UNL1        0.1093
     25 N         138.0410  141.7402  156.9003 N.pl3   1  UNL1       -0.3039
     26 C         138.4893  143.0470  156.3160 C.ar    1  UNL1        0.0481
     27 C         139.9437  143.4138  156.3270 C.ar    1  UNL1        0.0145
     28 C         140.3920  144.7205  155.7427 C.ar    1  UNL1        0.0013
     29 C         139.3859  145.6604  155.1474 C.ar    1  UNL1        0.0001
     30 C         137.9315  145.2936  155.1364 C.ar    1  UNL1        0.0013
     31 C         137.4832  143.9869  155.7207 C.ar    1  UNL1        0.0145
     32 C         137.3264  140.7400  156.0407 C.3     1  UNL1        0.1376
     33 C         132.3009  139.6870  157.2723 C.3     1  UNL1        0.0594
     34 C         133.5169  140.2263  156.5792 C.ar    1  UNL1        0.0883
     35 N         134.9415  139.9837  156.9816 N.ar    1  UNL1       -0.2453
     36 C         135.8269  140.7103  156.0130 C.ar    1  UNL1        0.0856
     37 C         134.9496  141.4019  155.0120 C.ar    1  UNL1        0.0530
     38 S         133.5220  141.1028  155.3619 S.2     1  UNL1       -0.0705
@<TRIPOS>UNITY_ATOM_ATTR
21 1
charge 1
22 1
charge -1
@<TRIPOS>BOND
     1    33    34    1
     2    34    35   ar
     3    35    36   ar
     4    36    32    1
     5    32    25    1
     6    25    26    1
     7    26    27   ar
     8    27    28   ar
     9    28    29   ar
    10    29    30   ar
    11    30    31   ar
    12    25     1    1
    13     1     2    1
    14     2     3    1
    15     3     4    1
    16     4     7    1
    17     7     8    1
    18     7     9    1
    19     9    10    1
    20    10    11    1
    21    11    12   am
    22    12    13    2
    23    12    16    1
    24    16    17   ar
    25    17    18    1
    26    17    19   ar
    27    19    20   ar
    28    20    21   ar
    29    21    22    1
    30    21    23   ar
    31    23    24    1
    32    11    14    1
    33    14    15    1
    34     4     5    1
    35     5     6    1
    36    36    37   ar
    37    37    38   ar
    38    38    34   ar
    39    31    26   ar
    40     6     1    1
    41    15     7    1
    42    23    16   ar
@<TRIPOS>MOLECULE
*****
 38 42 0 0 0
SMALL
GASTEIGER

@<TRIPOS>ATOM
      1 C         139.1370  142.8854  158.5196 C.3     1  UNL1        0.0759
      2 C         139.8785  143.9674  159.2472 C.3     1  UNL1        0.0371
      3 C         139.9276  143.9655  160.7464 C.3     1  UNL1        0.0737
      4 N         139.2351  142.8815  161.5180 N.3     1  UNL1       -0.2750
      5 C         138.4935  141.7995  160.7905 C.3     1  UNL1        0.0737
      6 C         138.4445  141.8014  159.2913 C.3     1  UNL1        0.0371
      7 C         139.2841  142.8796  163.0172 C.3     1  UNL1        0.0487
      8 C         138.3626  144.0408  162.7882 C.3     1  UNL1        0.0161
      9 C         140.1886  141.7191  162.7255 C.3     1  UNL1        0.0362
     10 C         140.8220  140.9598  163.8535 C.3     1  UNL1        0.0951
     11 N         140.5511  141.3612  165.2731 N.am    1  UNL1       -0.2758
     12 C         141.1845  140.6019  166.4012 C.2     1  UNL1        0.2542
     13 O         142.0890  139.4414  166.1094 O.2     1  UNL1       -0.2697
     14 C         139.6466  142.5217  165.5649 C.3     1  UNL1        0.0951
     15 C         139.0131  143.2809  164.4369 C.3     1  UNL1        0.0362
     16 C         140.9135  141.0033  167.8208 C.ar    1  UNL1        0.1099
     17 C         139.6954  140.4862  168.5270 C.ar    1  UNL1       -0.0058
     18 C         138.7482  139.5676  167.8135 C.3     1  UNL1        0.0316
     19 C         139.4244  140.8877  169.9467 C.ar    1  UNL1        0.0730
     20 C         140.3716  141.8063  170.6601 C.ar    1  UNL1        0.3010
     21 N         141.5897  142.3234  169.9539 N.ar    1  UNL1       -0.1606
     22 O         142.5369  143.2420  170.6674 O.co2   1  UNL1       -0.6190
     23 C         141.8607  141.9219  168.5343 C.ar    1  UNL1        0.2180
     24 C         143.0788  142.4391  167.8281 C.3     1  UNL1        0.1093
     25 N         139.0880  142.8874  157.0204 N.pl3   1  UNL1       -0.3039
     26 C         139.4577  144.1261  156.2595 C.ar    1  UNL1        0.0481
     27 C         138.4023  145.1310  155.9042 C.ar    1  UNL1        0.0145
     28 C         138.7720  146.3697  155.1433 C.ar    1  UNL1        0.0013
     29 C         140.1971  146.6035  154.7379 C.ar    1  UNL1        0.0001
     30 C         141.2525  145.5987  155.0932 C.ar    1  UNL1        0.0013
     31 C         140.8828  144.3600  155.8541 C.ar    1  UNL1        0.0145
     32 C         138.6693  141.6506  156.2821 C.3     1  UNL1        0.1376
     33 C         133.6499  140.0222  156.4699 C.3     1  UNL1        0.0594
     34 C         134.9182  140.6872  156.0235 C.ar    1  UNL1        0.0883
     35 N         136.2389  140.6334  156.7329 N.ar    1  UNL1       -0.2453
     36 C         137.2254  141.4357  155.9372 C.ar    1  UNL1        0.0856
     37 C         136.5145  141.9853  154.7361 C.ar    1  UNL1        0.0530
     38 S         135.0886  141.5227  154.7894 S.2     1  UNL1       -0.0705
@<TRIPOS>UNITY_ATOM_ATTR
21 1
charge 1
22 1
charge -1
@<TRIPOS>BOND
     1    33    34    1
     2    34    35   ar
     3    35    36   ar
     4    36    32    1
     5    32    25    1
     6    25    26    1
     7    26    27   ar
     8    27    28   ar
     9    28    29   ar
    10    29    30   ar
    11    30    31   ar
    12    25     1    1
    13     1     2    1
    14     2     3    1
    15     3     4    1
    16     4     7    1
    17     7     8    1
    18     7     9    1
    19     9    10    1
    20    10    11    1
    21    11    12   am
    22    12    13    2
    23    12    16    1
    24    16    17   ar
    25    17    18    1
    26    17    19   ar
    27    19    20   ar
    28    20    21   ar
    29    21    22    1
    30    21    23   ar
    31    23    24    1
    32    11    14    1
    33    14    15    1
    34     4     5    1
    35     5     6    1
    36    36    37   ar
    37    37    38   ar
    38    38    34   ar
    39    31    26   ar
    40     6     1    1
    41    15     7    1
    42    23    16   ar
@<TRIPOS>MOLECULE
*****
 38 42 0 0 0
SMALL
GASTEIGER

@<TRIPOS>ATOM
      1 C         138.4383  141.2883  158.5516 C.3     1  UNL1        0.0759
      2 C         139.0293  142.5681  159.0641 C.3     1  UNL1        0.0371
      3 C         139.1618  142.7944  160.5410 C.3     1  UNL1        0.0737
      4 N         138.7033  141.7410  161.5054 N.3     1  UNL1       -0.2750
      5 C         138.1123  140.4611  160.9928 C.3     1  UNL1        0.0737
      6 C         137.9798  140.2347  159.5159 C.3     1  UNL1        0.0371
      7 C         138.8359  141.9673  162.9822 C.3     1  UNL1        0.0487
      8 C         137.8156  143.0151  162.6486 C.3     1  UNL1        0.0161
      9 C         139.8100  140.8409  162.8029 C.3     1  UNL1        0.0362
     10 C         140.5625  140.3048  163.9846 C.3     1  UNL1        0.0951
     11 N         140.3407  140.8950  165.3456 N.am    1  UNL1       -0.2758
     12 C         141.0931  140.3588  166.5274 C.2     1  UNL1        0.2542
     13 O         142.0673  139.2324  166.3480 O.2     1  UNL1       -0.2697
     14 C         139.3665  142.0214  165.5250 C.3     1  UNL1        0.0951
     15 C         138.6141  142.5575  164.3432 C.3     1  UNL1        0.0362
     16 C         140.8712  140.9491  167.8884 C.ar    1  UNL1        0.1099
     17 C         139.6752  140.5417  168.6968 C.ar    1  UNL1       -0.0058
     18 C         138.7010  139.5439  168.1442 C.3     1  UNL1        0.0316
     19 C         139.4535  141.1321  170.0578 C.ar    1  UNL1        0.0730
     20 C         140.4277  142.1298  170.6104 C.ar    1  UNL1        0.3010
     21 N         141.6237  142.5372  169.8019 N.ar    1  UNL1       -0.1606
     22 O         142.5980  143.5350  170.3545 O.co2   1  UNL1       -0.6190
     23 C         141.8455  141.9469  168.4410 C.ar    1  UNL1        0.2180
     24 C         143.0415  142.3543  167.6325 C.3     1  UNL1        0.1093
     25 N         138.3058  141.0619  157.0747 N.pl3   1  UNL1       -0.3039
     26 C         139.1964  140.0715  156.3848 C.ar    1  UNL1        0.0481
     27 C         140.6604  140.0268  156.7082 C.ar    1  UNL1        0.0145
     28 C         141.5510  139.0364  156.0184 C.ar    1  UNL1        0.0013
     29 C         140.9775  138.0906  155.0052 C.ar    1  UNL1        0.0001
     30 C         139.5135  138.1352  154.6818 C.ar    1  UNL1        0.0013
     31 C         138.6230  139.1257  155.3716 C.ar    1  UNL1        0.0145
     32 C         137.2827  141.8260  156.2876 C.3     1  UNL1        0.1376
     33 C         132.9474  138.8552  156.7979 C.3     1  UNL1        0.0594
     34 C         133.9257  139.8776  156.3005 C.ar    1  UNL1        0.0883
     35 N         135.2892  140.1423  156.8672 N.ar    1  UNL1       -0.2453
     36 C         135.9184  141.2432  156.0659 C.ar    1  UNL1        0.0856
     37 C         134.9439  141.6590  155.0041 C.ar    1  UNL1        0.0530
     38 S         133.7124  140.8151  155.1490 S.2     1  UNL1       -0.0705
@<TRIPOS>UNITY_ATOM_ATTR
21 1
charge 1
22 1
charge -1
@<TRIPOS>BOND
     1    33    34    1
     2    34    35   ar
     3    35    36   ar
     4    36    32    1
     5    32    25    1
     6    25    26    1
     7    26    27   ar
     8    27    28   ar
     9    28    29   ar
    10    29    30   ar
    11    30    31   ar
    12    25     1    1
    13     1     2    1
    14     2     3    1
    15     3     4    1
    16     4     7    1
    17     7     8    1
    18     7     9    1
    19     9    10    1
    20    10    11    1
    21    11    12   am
    22    12    13    2
    23    12    16    1
    24    16    17   ar
    25    17    18    1
    26    17    19   ar
    27    19    20   ar
    28    20    21   ar
    29    21    22    1
    30    21    23   ar
    31    23    24    1
    32    11    14    1
    33    14    15    1
    34     4     5    1
    35     5     6    1
    36    36    37   ar
    37    37    38   ar
    38    38    34   ar
    39    31    26   ar
    40     6     1    1
    41    15     7    1
    42    23    16   ar
@<TRIPOS>MOLECULE
*****
 38 42 0 0 0
SMALL
GASTEIGER

@<TRIPOS>ATOM
      1 C         139.3234  142.6889  158.3699 C.3     1  UNL1        0.0759
      2 C         138.8707  141.4513  159.0863 C.3     1  UNL1        0.0371
      3 C         138.8631  141.4131  160.5858 C.3     1  UNL1        0.0737
      4 N         139.3082  142.6125  161.3689 N.3     1  UNL1       -0.2750
      5 C         139.7610  143.8502  160.6524 C.3     1  UNL1        0.0737
      6 C         139.7686  143.8884  159.1529 C.3     1  UNL1        0.0371
      7 C         139.3007  142.5743  162.8684 C.3     1  UNL1        0.0487
      8 C         138.3944  143.7462  162.6330 C.3     1  UNL1        0.0161
      9 C         140.2096  141.4157  162.5829 C.3     1  UNL1        0.0362
     10 C         140.7962  140.6259  163.7152 C.3     1  UNL1        0.0951
     11 N         140.4739  140.9947  165.1329 N.am    1  UNL1       -0.2758
     12 C         141.0605  140.2049  166.2653 C.2     1  UNL1        0.2542
     13 O         141.9694  139.0463  165.9798 O.2     1  UNL1       -0.2697
     14 C         139.5649  142.1533  165.4184 C.3     1  UNL1        0.0951
     15 C         138.9783  142.9431  164.2861 C.3     1  UNL1        0.0362
     16 C         140.7381  140.5737  167.6830 C.ar    1  UNL1        0.1099
     17 C         141.6738  141.4504  168.4613 C.ar    1  UNL1       -0.0058
     18 C         142.9320  141.9584  167.8218 C.3     1  UNL1        0.0316
     19 C         141.3513  141.8192  169.8791 C.ar    1  UNL1        0.0730
     20 C         140.0931  141.3113  170.5185 C.ar    1  UNL1        0.3010
     21 N         139.1574  140.4346  169.7402 N.ar    1  UNL1       -0.1606
     22 O         137.8992  139.9266  170.3797 O.co2   1  UNL1       -0.6190
     23 C         139.4799  140.0658  168.3225 C.ar    1  UNL1        0.2180
     24 C         138.5441  139.1890  167.5442 C.3     1  UNL1        0.1093
     25 N         139.3310  142.7271  156.8704 N.pl3   1  UNL1       -0.3039
     26 C         139.8228  143.9497  156.1537 C.ar    1  UNL1        0.0481
     27 C         138.8451  144.9779  155.6672 C.ar    1  UNL1        0.0145
     28 C         139.3368  146.2005  154.9506 C.ar    1  UNL1        0.0013
     29 C         140.8063  146.3948  154.7206 C.ar    1  UNL1        0.0001
     30 C         141.7840  145.3665  155.2072 C.ar    1  UNL1        0.0013
     31 C         141.2922  144.1440  155.9237 C.ar    1  UNL1        0.0145
     32 C         138.8469  141.5428  156.0875 C.3     1  UNL1        0.1376
     33 C         133.8140  139.9830  156.4315 C.3     1  UNL1        0.0594
     34 C         135.0692  140.6594  155.9659 C.ar    1  UNL1        0.0883
     35 N         136.4248  140.5328  156.5958 N.ar    1  UNL1       -0.2453
     36 C         137.3826  141.3764  155.8077 C.ar    1  UNL1        0.0856
     37 C         136.6191  142.0242  154.6909 C.ar    1  UNL1        0.0530
     38 S         135.1894  141.5811  154.7886 S.2     1  UNL1       -0.0705
@<TRIPOS>UNITY_ATOM_ATTR
21 1
charge 1
22 1
charge -1
@<TRIPOS>BOND
     1    33    34    1
     2    34    35   ar
     3    35    36   ar
     4    36    32    1
     5    32    25    1
     6    25    26    1
     7    26    27   ar
     8    27    28   ar
     9    28    29   ar
    10    29    30   ar
    11    30    31   ar
    12    25     1    1
    13     1     2    1
    14     2     3    1
    15     3     4    1
    16     4     7    1
    17     7     8    1
    18     7     9    1
    19     9    10    1
    20    10    11    1
    21    11    12   am
    22    12    13    2
    23    12    16    1
    24    16    17   ar
    25    17    18    1
    26    17    19   ar
    27    19    20   ar
    28    20    21   ar
    29    21    22    1
    30    21    23   ar
    31    23    24    1
    32    11    14    1
    33    14    15    1
    34     4     5    1
    35     5     6    1
    36    36    37   ar
    37    37    38   ar
    38    38    34   ar
    39    31    26   ar
    40     6     1    1
    41    15     7    1
    42    23    16   ar
@<TRIPOS>MOLECULE
*****
 38 42 0 0 0
SMALL
GASTEIGER

@<TRIPOS>ATOM
      1 C         140.0041  144.3325  159.0696 C.3     1  UNL1        0.0759
      2 C         140.4913  145.3868  160.0188 C.3     1  UNL1        0.0371
      3 C         140.4466  145.1426  161.4981 C.3     1  UNL1        0.0737
      4 N         139.9146  143.8442  162.0282 N.3     1  UNL1       -0.2750
      5 C         139.4274  142.7898  161.0790 C.3     1  UNL1        0.0737
      6 C         139.4721  143.0339  159.5997 C.3     1  UNL1        0.0371
      7 C         139.8699  143.6000  163.5075 C.3     1  UNL1        0.0487
      8 C         138.9579  144.7870  163.4117 C.3     1  UNL1        0.0161
      9 C         140.7975  142.4978  163.0895 C.3     1  UNL1        0.0362
     10 C         141.3636  141.5637  164.1176 C.3     1  UNL1        0.0951
     11 N         141.0022  141.7317  165.5636 N.am    1  UNL1       -0.2758
     12 C         141.5683  140.7976  166.5917 C.2     1  UNL1        0.2542
     13 O         142.4959  139.6954  166.1737 O.2     1  UNL1       -0.2697
     14 C         140.0746  142.8339  165.9816 C.3     1  UNL1        0.0951
     15 C         139.5085  143.7681  164.9535 C.3     1  UNL1        0.0362
     16 C         141.2068  140.9657  168.0378 C.ar    1  UNL1        0.1099
     17 C         142.1036  141.7504  168.9488 C.ar    1  UNL1       -0.0058
     18 C         143.3620  142.3670  168.4138 C.3     1  UNL1        0.0316
     19 C         141.7419  141.9185  170.3949 C.ar    1  UNL1        0.0730
     20 C         140.4835  141.3019  170.9298 C.ar    1  UNL1        0.3010
     21 N         139.5868  140.5172  170.0188 N.ar    1  UNL1       -0.1606
     22 O         138.3283  139.9006  170.5538 O.co2   1  UNL1       -0.6190
     23 C         139.9483  140.3491  168.5728 C.ar    1  UNL1        0.2180
     24 C         139.0516  139.5644  167.6617 C.3     1  UNL1        0.1093
     25 N         140.0488  144.5766  157.5903 N.pl3   1  UNL1       -0.3039
     26 C         139.4968  143.5519  156.6440 C.ar    1  UNL1        0.0481
     27 C         140.3442  142.3892  156.2199 C.ar    1  UNL1        0.0145
     28 C         139.7922  141.3646  155.2736 C.ar    1  UNL1        0.0013
     29 C         138.3928  141.5027  154.7515 C.ar    1  UNL1        0.0001
     30 C         137.5454  142.6655  155.1756 C.ar    1  UNL1        0.0013
     31 C         138.0974  143.6901  156.1218 C.ar    1  UNL1        0.0145
     32 C         140.6455  145.8454  157.0572 C.3     1  UNL1        0.1376
     33 C         143.4614  145.1058  152.6521 C.3     1  UNL1        0.0594
     34 C         142.4050  145.5750  153.6080 C.ar    1  UNL1        0.0883
     35 N         142.3202  145.2326  155.0660 N.ar    1  UNL1       -0.2453
     36 C         141.1106  145.9149  155.6328 C.ar    1  UNL1        0.0856
     37 C         140.4477  146.6790  154.5252 C.ar    1  UNL1        0.0530
     38 S         141.2476  146.4689  153.2738 S.2     1  UNL1       -0.0705
@<TRIPOS>UNITY_ATOM_ATTR
21 1
charge 1
22 1
charge -1
@<TRIPOS>BOND
     1    33    34    1
     2    34    35   ar
     3    35    36   ar
     4    36    32    1
     5    32    25    1
     6    25    26    1
     7    26    27   ar
     8    27    28   ar
     9    28    29   ar
    10    29    30   ar
    11    30    31   ar
    12    25     1    1
    13     1     2    1
    14     2     3    1
    15     3     4    1
    16     4     7    1
    17     7     8    1
    18     7     9    1
    19     9    10    1
    20    10    11    1
    21    11    12   am
    22    12    13    2
    23    12    16    1
    24    16    17   ar
    25    17    18    1
    26    17    19   ar
    27    19    20   ar
    28    20    21   ar
    29    21    22    1
    30    21    23   ar
    31    23    24    1
    32    11    14    1
    33    14    15    1
    34     4     5    1
    35     5     6    1
    36    36    37   ar
    37    37    38   ar
    38    38    34   ar
    39    31    26   ar
    40     6     1    1
    41    15     7    1
    42    23    16   ar
@<TRIPOS>MOLECULE
*****
 38 42 0 0 0
SMALL
GASTEIGER

@<TRIPOS>ATOM
      1 C         140.5365  144.3537  159.0207 C.3     1  UNL1        0.0759
      2 C         140.4492  145.5100  159.9722 C.3     1  UNL1        0.0371
      3 C         140.3353  145.2608  161.4470 C.3     1  UNL1        0.0737
      4 N         140.3086  143.8553  161.9702 N.3     1  UNL1       -0.2750
      5 C         140.3959  142.6989  161.0188 C.3     1  UNL1        0.0737
      6 C         140.5098  142.9481  159.5440 C.3     1  UNL1        0.0371
      7 C         140.1947  143.6061  163.4450 C.3     1  UNL1        0.0487
      8 C         139.4073  144.8780  163.3341 C.3     1  UNL1        0.0161
      9 C         141.0216  142.4207  163.0436 C.3     1  UNL1        0.0362
     10 C         141.4611  141.4278  164.0786 C.3     1  UNL1        0.0951
     11 N         141.0738  141.6204  165.5148 N.am    1  UNL1       -0.2758
     12 C         141.5133  140.6275  166.5498 C.2     1  UNL1        0.2542
     13 O         142.3403  139.4421  166.1484 O.2     1  UNL1       -0.2697
     14 C         140.2469  142.8057  165.9162 C.3     1  UNL1        0.0951
     15 C         139.8073  143.7986  164.8812 C.3     1  UNL1        0.0362
     16 C         141.1259  140.8201  167.9860 C.ar    1  UNL1        0.1099
     17 C         142.0332  141.5732  168.9131 C.ar    1  UNL1       -0.0058
     18 C         143.3281  142.1338  168.4040 C.3     1  UNL1        0.0316
     19 C         141.6457  141.7658  170.3494 C.ar    1  UNL1        0.0730
     20 C         140.3509  141.2052  170.8585 C.ar    1  UNL1        0.3010
     21 N         139.4436  140.4520  169.9313 N.ar    1  UNL1       -0.1606
     22 O         138.1488  139.8914  170.4405 O.co2   1  UNL1       -0.6190
     23 C         139.8311  140.2595  168.4952 C.ar    1  UNL1        0.2180
     24 C         138.9238  139.5064  167.5680 C.3     1  UNL1        0.1093
     25 N         140.6504  144.6029  157.5460 N.pl3   1  UNL1       -0.3039
     26 C         139.4419  144.4700  156.6673 C.ar    1  UNL1        0.0481
     27 C         138.9807  145.6365  155.8449 C.ar    1  UNL1        0.0145
     28 C         137.7722  145.5036  154.9663 C.ar    1  UNL1        0.0013
     29 C         137.0250  144.2041  154.9101 C.ar    1  UNL1        0.0001
     30 C         137.4863  143.0376  155.7326 C.ar    1  UNL1        0.0013
     31 C         138.6947  143.1705  156.6111 C.ar    1  UNL1        0.0145
     32 C         141.9727  144.9849  156.9498 C.3     1  UNL1        0.1376
     33 C         145.0847  140.7409  156.5200 C.3     1  UNL1        0.0594
     34 C         144.3038  141.9770  156.1853 C.ar    1  UNL1        0.0883
     35 N         143.4747  142.7822  157.1417 N.ar    1  UNL1       -0.2453
     36 C         142.8734  143.9278  156.3828 C.ar    1  UNL1        0.0856
     37 C         143.3306  143.8308  154.9575 C.ar    1  UNL1        0.0530
     38 S         144.2147  142.6251  154.8354 S.2     1  UNL1       -0.0705
@<TRIPOS>UNITY_ATOM_ATTR
21 1
charge 1
22 1
charge -1
@<TRIPOS>BOND
     1    33    34    1
     2    34    35   ar
     3    35    36   ar
     4    36    32    1
     5    32    25    1
     6    25    26    1
     7    26    27   ar
     8    27    28   ar
     9    28    29   ar
    10    29    30   ar
    11    30    31   ar
    12    25     1    1
    13     1     2    1
    14     2     3    1
    15     3     4    1
    16     4     7    1
    17     7     8    1
    18     7     9    1
    19     9    10    1
    20    10    11    1
    21    11    12   am
    22    12    13    2
    23    12    16    1
    24    16    17   ar
    25    17    18    1
    26    17    19   ar
    27    19    20   ar
    28    20    21   ar
    29    21    22    1
    30    21    23   ar
    31    23    24    1
    32    11    14    1
    33    14    15    1
    34     4     5    1
    35     5     6    1
    36    36    37   ar
    37    37    38   ar
    38    38    34   ar
    39    31    26   ar
    40     6     1    1
    41    15     7    1
    42    23    16   ar
@<TRIPOS>MOLECULE
*****
 38 42 0 0 0
SMALL
GASTEIGER

@<TRIPOS>ATOM
      1 C         140.9397  138.1362  157.5427 C.3     1  UNL1        0.0759
      2 C         142.3547  138.3658  157.9840 C.3     1  UNL1        0.0371
      3 C         142.6583  138.6105  159.4325 C.3     1  UNL1        0.0737
      4 N         141.5468  138.6256  160.4396 N.3     1  UNL1       -0.2750
      5 C         140.1316  138.3960  159.9982 C.3     1  UNL1        0.0737
      6 C         139.8281  138.1513  158.5498 C.3     1  UNL1        0.0371
      7 C         141.8503  138.8703  161.8880 C.3     1  UNL1        0.0487
      8 C         142.8409  137.7829  161.5943 C.3     1  UNL1        0.0161
      9 C         140.7542  139.8727  161.6786 C.3     1  UNL1        0.0362
     10 C         140.3058  140.7421  162.8157 C.3     1  UNL1        0.0951
     11 N         140.9533  140.6092  164.1621 N.am    1  UNL1       -0.2758
     12 C         140.5048  141.4787  165.2992 C.2     1  UNL1        0.2542
     13 O         139.4088  142.4811  165.0898 O.2     1  UNL1       -0.2697
     14 C         142.0494  139.6068  164.3715 C.3     1  UNL1        0.0951
     15 C         142.4979  138.7374  163.2344 C.3     1  UNL1        0.0362
     16 C         141.1525  141.3457  166.6457 C.ar    1  UNL1        0.1099
     17 C         142.4431  142.0550  166.9306 C.ar    1  UNL1       -0.0058
     18 C         143.0861  142.8974  165.8690 C.3     1  UNL1        0.0316
     19 C         143.0907  141.9219  168.2771 C.ar    1  UNL1        0.0730
     20 C         142.4476  141.0795  169.3386 C.ar    1  UNL1        0.3010
     21 N         141.1570  140.3702  169.0537 N.ar    1  UNL1       -0.1606
     22 O         140.5139  139.5278  170.1153 O.co2   1  UNL1       -0.6190
     23 C         140.5094  140.5033  167.7072 C.ar    1  UNL1        0.2180
     24 C         139.2188  139.7940  167.4223 C.3     1  UNL1        0.1093
     25 N         140.6361  137.8915  156.0942 N.pl3   1  UNL1       -0.3039
     26 C         139.3565  138.4008  155.4997 C.ar    1  UNL1        0.0481
     27 C         139.0504  139.8689  155.5239 C.ar    1  UNL1        0.0145
     28 C         137.7708  140.3781  154.9293 C.ar    1  UNL1        0.0013
     29 C         136.7975  139.4190  154.3106 C.ar    1  UNL1        0.0001
     30 C         137.1036  137.9508  154.2864 C.ar    1  UNL1        0.0013
     31 C         138.3832  137.4417  154.8810 C.ar    1  UNL1        0.0145
     32 C         141.6121  137.1377  155.2404 C.3     1  UNL1        0.1376
     33 C         141.2582  131.8718  155.0784 C.3     1  UNL1        0.0594
     34 C         141.7038  133.2616  155.4242 C.ar    1  UNL1        0.0883
     35 N         141.1193  134.5344  154.8868 N.ar    1  UNL1       -0.2453
     36 C         141.8665  135.6821  155.4987 C.ar    1  UNL1        0.0856
     37 C         142.9128  135.1189  156.4142 C.ar    1  UNL1        0.0530
     38 S         142.8122  133.6229  156.3682 S.2     1  UNL1       -0.0705
@<TRIPOS>UNITY_ATOM_ATTR
21 1
charge 1
22 1
charge -1
@<TRIPOS>BOND
     1    33    34    1
     2    34    35   ar
     3    35    36   ar
     4    36    32    1
     5    32    25    1
     6    25    26    1
     7    26    27   ar
     8    27    28   ar
     9    28    29   ar
    10    29    30   ar
    11    30    31   ar
    12    25     1    1
    13     1     2    1
    14     2     3    1
    15     3     4    1
    16     4     7    1
    17     7     8    1
    18     7     9    1
    19     9    10    1
    20    10    11    1
    21    11    12   am
    22    12    13    2
    23    12    16    1
    24    16    17   ar
    25    17    18    1
    26    17    19   ar
    27    19    20   ar
    28    20    21   ar
    29    21    22    1
    30    21    23   ar
    31    23    24    1
    32    11    14    1
    33    14    15    1
    34     4     5    1
    35     5     6    1
    36    36    37   ar
    37    37    38   ar
    38    38    34   ar
    39    31    26   ar
    40     6     1    1
    41    15     7    1
    42    23    16   ar
