@<TRIPOS>MOLECULE
*****
 17 19 0 0 0
SMALL
GASTEIGER

@<TRIPOS>ATOM
      1 C         139.4734  140.2242  163.5276 C.3     1  UNL1        0.0312
      2 C         139.2921  140.0728  165.0088 C.ar    1  UNL1       -0.0158
      3 C         140.1253  140.8872  165.9536 C.ar    1  UNL1        0.0121
      4 C         139.9439  140.7357  167.4349 C.ar    1  UNL1        0.0779
      5 N         138.9293  139.7700  167.9714 N.ar    1  UNL1       -0.1495
      6 O         138.7480  139.6185  169.4527 O.3     1  UNL1       -0.4233
      7 C         138.0961  138.9556  167.0267 C.ar    1  UNL1        0.2916
      8 O         137.0815  137.9898  167.5632 O.2     1  UNL1       -0.2640
      9 C         138.2775  139.1070  165.5454 C.ar    1  UNL1        0.0595
     10 H         139.2684  140.1272  170.0429 H       1  UNL1        0.3259
     11 C         140.7771  141.5501  168.3797 C.3     1  UNL1        0.0418
     12 C         140.3553  142.8207  169.0563 C.3     1  UNL1        0.0060
     13 C         141.4960  143.2927  169.9085 C.3     1  UNL1        0.0004
     14 C         142.8972  142.9796  170.3425 C.3     1  UNL1        0.0000
     15 C         143.3190  141.7091  169.6658 C.3     1  UNL1        0.0004
     16 C         142.1784  141.2370  168.8137 C.3     1  UNL1        0.0056
     17 C         141.0517  142.2158  168.9636 C.3     1  UNL1        0.0004
@<TRIPOS>BOND
     1     1     2    1
     2     2     3   ar
     3     3     4   ar
     4    11     4    1
     5    11    12    1
     6    13    12    1
     7    13    14    1
     8    14    15    1
     9    16    15    1
    10    16    17    1
    11     4     5   ar
    12     5     6    1
    13     5     7   ar
    14     7     8    2
    15     7     9   ar
    16     9     2   ar
    17    16    11    1
    18    17    13    1
    19     6    10    1
@<TRIPOS>MOLECULE
*****
 17 19 0 0 0
SMALL
GASTEIGER

@<TRIPOS>ATOM
      1 C         137.7938  138.0113  166.7360 C.3     1  UNL1        0.0312
      2 C         138.4510  139.3301  166.4554 C.ar    1  UNL1       -0.0158
      3 C         139.3063  139.9797  167.5025 C.ar    1  UNL1        0.0121
      4 C         139.9635  141.2986  167.2218 C.ar    1  UNL1        0.0779
      5 N         139.7653  141.9678  165.8941 N.ar    1  UNL1       -0.1495
      6 O         140.4225  143.2867  165.6134 O.3     1  UNL1       -0.4233
      7 C         138.9100  141.3182  164.8470 C.ar    1  UNL1        0.2916
      8 O         138.7118  141.9875  163.5192 O.2     1  UNL1       -0.2640
      9 C         138.2528  139.9994  165.1276 C.ar    1  UNL1        0.0595
     10 H         140.9568  143.6926  166.2674 H       1  UNL1        0.3259
     11 C         140.8188  141.9483  168.2688 C.3     1  UNL1        0.0418
     12 C         140.3939  143.0473  169.1972 C.3     1  UNL1        0.0060
     13 C         141.5617  143.3912  170.0735 C.3     1  UNL1        0.0004
     14 C         142.9921  143.0560  170.3761 C.3     1  UNL1        0.0000
     15 C         143.4170  141.9570  169.4478 C.3     1  UNL1        0.0004
     16 C         142.2492  141.6131  168.5714 C.3     1  UNL1        0.0056
     17 C         141.1026  142.4994  168.9582 C.3     1  UNL1        0.0004
@<TRIPOS>BOND
     1     1     2    1
     2     2     3   ar
     3     3     4   ar
     4    11     4    1
     5    11    12    1
     6    13    12    1
     7    13    14    1
     8    14    15    1
     9    16    15    1
    10    16    17    1
    11     4     5   ar
    12     5     6    1
    13     5     7   ar
    14     7     8    2
    15     7     9   ar
    16     9     2   ar
    17    16    11    1
    18    17    13    1
    19     6    10    1
@<TRIPOS>MOLECULE
*****
 17 19 0 0 0
SMALL
GASTEIGER

@<TRIPOS>ATOM
      1 C         142.5212  142.1295  168.1868 C.3     1  UNL1        0.0312
      2 C         141.2979  141.2673  168.0854 C.ar    1  UNL1       -0.0158
      3 C         140.9165  140.6586  166.7686 C.ar    1  UNL1        0.0121
      4 C         139.6931  139.7964  166.6672 C.ar    1  UNL1        0.0779
      5 N         138.8513  139.5430  167.8826 N.ar    1  UNL1       -0.1495
      6 O         137.6280  138.6809  167.7812 O.3     1  UNL1       -0.4233
      7 C         139.2328  140.1518  169.1994 C.ar    1  UNL1        0.2916
      8 O         138.3909  139.8984  170.4147 O.2     1  UNL1       -0.2640
      9 C         140.4560  141.0139  169.3008 C.ar    1  UNL1        0.0595
     10 H         137.3897  138.3006  166.9586 H       1  UNL1        0.3259
     11 C         139.3117  139.1876  165.3504 C.3     1  UNL1        0.0418
     12 C         139.5856  137.7774  164.9187 C.3     1  UNL1        0.0060
     13 C         139.0325  137.6005  163.5356 C.3     1  UNL1        0.0004
     14 C         138.3102  138.2949  162.4194 C.3     1  UNL1        0.0000
     15 C         138.0364  139.7051  162.8512 C.3     1  UNL1        0.0004
     16 C         138.5894  139.8821  164.2342 C.3     1  UNL1        0.0056
     17 C         139.2051  138.5814  164.6572 C.3     1  UNL1        0.0004
@<TRIPOS>BOND
     1     1     2    1
     2     2     3   ar
     3     3     4   ar
     4    11     4    1
     5    11    12    1
     6    13    12    1
     7    13    14    1
     8    14    15    1
     9    16    15    1
    10    16    17    1
    11     4     5   ar
    12     5     6    1
    13     5     7   ar
    14     7     8    2
    15     7     9   ar
    16     9     2   ar
    17    16    11    1
    18    17    13    1
    19     6    10    1
@<TRIPOS>MOLECULE
*****
 17 19 0 0 0
SMALL
GASTEIGER

@<TRIPOS>ATOM
      1 C         137.3524  137.1746  167.0714 C.3     1  UNL1        0.0312
      2 C         138.1549  137.9300  166.0539 C.ar    1  UNL1       -0.0158
      3 C         138.2164  139.4277  166.1088 C.ar    1  UNL1        0.0121
      4 C         139.0190  140.1831  165.0912 C.ar    1  UNL1        0.0779
      5 N         139.7599  139.4408  164.0189 N.ar    1  UNL1       -0.1495
      6 O         140.5625  140.1962  163.0013 O.3     1  UNL1       -0.4233
      7 C         139.6984  137.9431  163.9641 C.ar    1  UNL1        0.2916
      8 O         140.4394  137.2008  162.8917 O.2     1  UNL1       -0.2640
      9 C         138.8959  137.1877  164.9815 C.ar    1  UNL1        0.0595
     10 H         140.6009  141.1318  163.0356 H       1  UNL1        0.3259
     11 C         139.0805  141.6809  165.1461 C.3     1  UNL1        0.0418
     12 C         140.1563  142.4957  165.8010 C.3     1  UNL1        0.0060
     13 C         139.8177  143.9452  165.6153 C.3     1  UNL1        0.0004
     14 C         138.8143  144.8911  165.0249 C.3     1  UNL1        0.0000
     15 C         137.7386  144.0762  164.3700 C.3     1  UNL1        0.0004
     16 C         138.0772  142.6267  164.5557 C.3     1  UNL1        0.0056
     17 C         139.3621  142.5458  165.3253 C.3     1  UNL1        0.0004
@<TRIPOS>BOND
     1     1     2    1
     2     2     3   ar
     3     3     4   ar
     4    11     4    1
     5    11    12    1
     6    13    12    1
     7    13    14    1
     8    14    15    1
     9    16    15    1
    10    16    17    1
    11     4     5   ar
    12     5     6    1
    13     5     7   ar
    14     7     8    2
    15     7     9   ar
    16     9     2   ar
    17    16    11    1
    18    17    13    1
    19     6    10    1
@<TRIPOS>MOLECULE
*****
 17 19 0 0 0
SMALL
GASTEIGER

@<TRIPOS>ATOM
      1 C         142.2710  143.5457  164.5565 C.3     1  UNL1        0.0312
      2 C         140.9326  142.9569  164.2218 C.ar    1  UNL1       -0.0158
      3 C         140.5413  141.6197  164.7775 C.ar    1  UNL1        0.0121
      4 C         139.2029  141.0310  164.4428 C.ar    1  UNL1        0.0779
      5 N         138.2558  141.7794  163.5524 N.ar    1  UNL1       -0.1495
      6 O         136.9173  141.1907  163.2177 O.3     1  UNL1       -0.4233
      7 C         138.6471  143.1166  162.9967 C.ar    1  UNL1        0.2916
      8 O         137.6999  143.8651  162.1063 O.2     1  UNL1       -0.2640
      9 C         139.9855  143.7054  163.3314 C.ar    1  UNL1        0.0595
     10 H         136.6729  140.3554  163.5648 H       1  UNL1        0.3259
     11 C         138.8116  139.6938  164.9985 C.3     1  UNL1        0.0418
     12 C         139.1076  138.3604  164.3783 C.3     1  UNL1        0.0060
     13 C         138.5345  137.2978  165.2685 C.3     1  UNL1        0.0004
     14 C         137.7785  137.0591  166.5418 C.3     1  UNL1        0.0000
     15 C         137.4824  138.3925  167.1619 C.3     1  UNL1        0.0004
     16 C         138.0555  139.4552  166.2718 C.3     1  UNL1        0.0056
     17 C         138.7057  138.7786  165.1016 C.3     1  UNL1        0.0004
@<TRIPOS>BOND
     1     1     2    1
     2     2     3   ar
     3     3     4   ar
     4    11     4    1
     5    11    12    1
     6    13    12    1
     7    13    14    1
     8    14    15    1
     9    16    15    1
    10    16    17    1
    11     4     5   ar
    12     5     6    1
    13     5     7   ar
    14     7     8    2
    15     7     9   ar
    16     9     2   ar
    17    16    11    1
    18    17    13    1
    19     6    10    1
@<TRIPOS>MOLECULE
*****
 17 19 0 0 0
SMALL
GASTEIGER

@<TRIPOS>ATOM
      1 C         137.9102  144.2605  163.8171 C.3     1  UNL1        0.0312
      2 C         138.4878  143.0724  164.5277 C.ar    1  UNL1       -0.0158
      3 C         139.4974  143.2693  165.6194 C.ar    1  UNL1        0.0121
      4 C         140.0750  142.0811  166.3300 C.ar    1  UNL1        0.0779
      5 N         139.6430  140.6963  165.9487 N.ar    1  UNL1       -0.1495
      6 O         140.2206  139.5081  166.6593 O.3     1  UNL1       -0.4233
      7 C         138.6334  140.4994  164.8570 C.ar    1  UNL1        0.2916
      8 O         138.2014  139.1144  164.4757 O.2     1  UNL1       -0.2640
      9 C         138.0558  141.6875  164.1464 C.ar    1  UNL1        0.0595
     10 H         140.8512  139.6311  167.3413 H       1  UNL1        0.3259
     11 C         141.0846  142.2780  167.4217 C.3     1  UNL1        0.0418
     12 C         142.5533  141.9874  167.3274 C.3     1  UNL1        0.0060
     13 C         143.1791  142.3298  168.6469 C.3     1  UNL1        0.0004
     14 C         142.8975  142.8518  170.0247 C.3     1  UNL1        0.0000
     15 C         141.4289  143.1423  170.1189 C.3     1  UNL1        0.0004
     16 C         140.8030  142.8000  168.7995 C.3     1  UNL1        0.0056
     17 C         141.8847  142.2978  167.8897 C.3     1  UNL1        0.0004
@<TRIPOS>BOND
     1     1     2    1
     2     2     3   ar
     3     3     4   ar
     4    11     4    1
     5    11    12    1
     6    13    12    1
     7    13    14    1
     8    14    15    1
     9    16    15    1
    10    16    17    1
    11     4     5   ar
    12     5     6    1
    13     5     7   ar
    14     7     8    2
    15     7     9   ar
    16     9     2   ar
    17    16    11    1
    18    17    13    1
    19     6    10    1
@<TRIPOS>MOLECULE
*****
 17 19 0 0 0
SMALL
GASTEIGER

@<TRIPOS>ATOM
      1 C         139.0904  138.0957  164.2029 C.3     1  UNL1        0.0312
      2 C         140.1094  138.5638  165.1990 C.ar    1  UNL1       -0.0158
      3 C         139.6992  139.4685  166.3230 C.ar    1  UNL1        0.0121
      4 C         140.7183  139.9366  167.3191 C.ar    1  UNL1        0.0779
      5 N         142.1477  139.5001  167.1913 N.ar    1  UNL1       -0.1495
      6 O         143.1668  139.9683  168.1875 O.3     1  UNL1       -0.4233
      7 C         142.5579  138.5954  166.0674 C.ar    1  UNL1        0.2916
      8 O         143.9874  138.1589  165.9396 O.2     1  UNL1       -0.2640
      9 C         141.5389  138.1273  165.0712 C.ar    1  UNL1        0.0595
     10 H         142.9105  140.5334  168.8895 H       1  UNL1        0.3259
     11 C         140.3080  140.8413  168.4430 C.3     1  UNL1        0.0418
     12 C         139.5049  140.4443  169.6462 C.3     1  UNL1        0.0060
     13 C         139.3294  141.6595  170.5079 C.3     1  UNL1        0.0004
     14 C         139.6502  143.1200  170.6261 C.3     1  UNL1        0.0000
     15 C         140.4533  143.5170  169.4230 C.3     1  UNL1        0.0004
     16 C         140.6289  142.3018  168.5613 C.3     1  UNL1        0.0056
     17 C         139.9342  141.1538  169.2318 C.3     1  UNL1        0.0004
@<TRIPOS>BOND
     1     1     2    1
     2     2     3   ar
     3     3     4   ar
     4    11     4    1
     5    11    12    1
     6    13    12    1
     7    13    14    1
     8    14    15    1
     9    16    15    1
    10    16    17    1
    11     4     5   ar
    12     5     6    1
    13     5     7   ar
    14     7     8    2
    15     7     9   ar
    16     9     2   ar
    17    16    11    1
    18    17    13    1
    19     6    10    1
@<TRIPOS>MOLECULE
*****
 17 19 0 0 0
SMALL
GASTEIGER

@<TRIPOS>ATOM
      1 C         138.1379  139.1917  166.2098 C.3     1  UNL1        0.0312
      2 C         139.3782  139.7481  166.8439 C.ar    1  UNL1       -0.0158
      3 C         140.5513  140.1284  165.9900 C.ar    1  UNL1        0.0121
      4 C         141.7916  140.6848  166.6243 C.ar    1  UNL1        0.0779
      5 N         141.8587  140.8609  168.1124 N.ar    1  UNL1       -0.1495
      6 O         143.0990  141.4173  168.7466 O.3     1  UNL1       -0.4233
      7 C         140.6856  140.4806  168.9663 C.ar    1  UNL1        0.2916
      8 O         140.7528  140.6566  170.4544 O.2     1  UNL1       -0.2640
      9 C         139.4453  139.9242  168.3321 C.ar    1  UNL1        0.0595
     10 H         143.8318  141.6548  168.2132 H       1  UNL1        0.3259
     11 C         142.9647  141.0651  165.7703 C.3     1  UNL1        0.0418
     12 C         143.4259  142.4621  165.4774 C.3     1  UNL1        0.0060
     13 C         144.6288  142.3756  164.5854 C.3     1  UNL1        0.0004
     14 C         145.5467  141.4257  163.8745 C.3     1  UNL1        0.0000
     15 C         145.0854  140.0288  164.1675 C.3     1  UNL1        0.0004
     16 C         143.8825  140.1153  165.0595 C.3     1  UNL1        0.0056
     17 C         143.6003  141.5657  165.3177 C.3     1  UNL1        0.0004
@<TRIPOS>BOND
     1     1     2    1
     2     2     3   ar
     3     3     4   ar
     4    11     4    1
     5    11    12    1
     6    13    12    1
     7    13    14    1
     8    14    15    1
     9    16    15    1
    10    16    17    1
    11     4     5   ar
    12     5     6    1
    13     5     7   ar
    14     7     8    2
    15     7     9   ar
    16     9     2   ar
    17    16    11    1
    18    17    13    1
    19     6    10    1
@<TRIPOS>MOLECULE
*****
 17 19 0 0 0
SMALL
GASTEIGER

@<TRIPOS>ATOM
      1 C         143.6700  144.9297  163.1681 C.3     1  UNL1        0.0312
      2 C         142.2607  144.5845  163.5482 C.ar    1  UNL1       -0.0158
      3 C         141.9992  143.6700  164.7081 C.ar    1  UNL1        0.0121
      4 C         140.5898  143.3249  165.0882 C.ar    1  UNL1        0.0779
      5 N         139.4418  143.8942  164.3084 N.ar    1  UNL1       -0.1495
      6 O         138.0324  143.5491  164.6885 O.3     1  UNL1       -0.4233
      7 C         139.7033  144.8087  163.1485 C.ar    1  UNL1        0.2916
      8 O         138.5553  145.3781  162.3687 O.2     1  UNL1       -0.2640
      9 C         141.1127  145.1539  162.7684 C.ar    1  UNL1        0.0595
     10 H         137.8691  142.9778  165.4130 H       1  UNL1        0.3259
     11 C         140.3283  142.4104  166.2480 C.3     1  UNL1        0.0418
     12 C         139.8762  140.9827  166.1608 C.3     1  UNL1        0.0060
     13 C         139.7415  140.4530  167.5577 C.3     1  UNL1        0.0004
     14 C         139.8863  140.8055  169.0085 C.3     1  UNL1        0.0000
     15 C         140.3384  142.2330  169.0957 C.3     1  UNL1        0.0004
     16 C         140.4731  142.7628  167.6988 C.3     1  UNL1        0.0056
     17 C         140.1042  141.6627  166.7483 C.3     1  UNL1        0.0004
@<TRIPOS>BOND
     1     1     2    1
     2     2     3   ar
     3     3     4   ar
     4    11     4    1
     5    11    12    1
     6    13    12    1
     7    13    14    1
     8    14    15    1
     9    16    15    1
    10    16    17    1
    11     4     5   ar
    12     5     6    1
    13     5     7   ar
    14     7     8    2
    15     7     9   ar
    16     9     2   ar
    17    16    11    1
    18    17    13    1
    19     6    10    1
