@<TRIPOS>MOLECULE
*****
 26 28 0 0 0
SMALL
GASTEIGER

@<TRIPOS>ATOM
      1 C         142.6202  137.8978  162.0049 C.3     1  UNL1        0.1111
      2 C         143.4786  137.6803  160.7942 C.3     1  UNL1        0.1598
      3 O         144.5226  138.7571  160.7666 O.3     1  UNL1       -0.3519
      4 C         144.3093  139.6401  161.9603 C.3     1  UNL1        0.1480
      5 C         143.1336  139.1091  162.7256 C.3     1  UNL1        0.0704
      6 C         142.5701  139.6877  163.9896 C.ar    1  UNL1       -0.0186
      7 C         142.9179  139.0764  165.3145 C.ar    1  UNL1       -0.0041
      8 C         142.3545  139.6550  166.5785 C.ar    1  UNL1        0.0012
      9 C         141.4432  140.8449  166.5176 C.ar    1  UNL1        0.0176
     10 C         141.0954  141.4562  165.1927 C.ar    1  UNL1        0.0012
     11 C         141.6588  140.8776  163.9288 C.ar    1  UNL1       -0.0041
     12 C         140.8798  141.4236  167.7817 C.ar    1  UNL1        0.0815
     13 C         141.0111  142.8920  168.0580 C.ar    1  UNL1        0.0215
     14 C         140.4476  143.4706  169.3221 C.ar    1  UNL1        0.0328
     15 C         139.7529  142.5808  170.3097 C.ar    1  UNL1        0.1592
     16 F         139.1895  143.1593  171.5738 F       1  UNL1       -0.2025
     17 C         139.6216  141.1122  170.0333 C.ar    1  UNL1        0.1283
     18 N         140.1851  140.5337  168.7693 N.ar    1  UNL1       -0.2415
     19 N         141.4533  137.0525  162.4217 N.3     1  UNL1       -0.1819
     20 H         141.3030  136.3709  161.6779 H       1  UNL1        0.1485
     21 S         140.1248  137.6917  162.6981 S.O2    1  UNL1        0.0391
     22 O         140.2227  137.2734  164.1353 O.2     1  UNL1       -0.1576
     23 O         140.0269  138.1100  161.2611 O.2     1  UNL1       -0.1576
     24 C         138.4814  138.8416  164.3495 C.3     1  UNL1        0.0270
     25 C         138.7963  138.3309  162.9747 C.3     1  UNL1        0.1457
     26 C         137.7827  138.4593  161.8765 C.3     1  UNL1        0.0270
@<TRIPOS>BOND
     1    24    25    1
     2    25    26    1
     3    25    21    1
     4    21    22    2
     5    21    23    2
     6    21    19    1
     7     1    19    1
     8     1     2    1
     9     2     3    1
    10     3     4    1
    11     4     5    1
    12     5     6    1
    13     6     7   ar
    14     7     8   ar
    15     8     9   ar
    16     9    12    1
    17    12    13   ar
    18    13    14   ar
    19    14    15   ar
    20    15    16    1
    21    15    17   ar
    22    17    18   ar
    23     9    10   ar
    24    10    11   ar
    25     5     1    1
    26    11     6   ar
    27    18    12   ar
    28    19    20    1
@<TRIPOS>MOLECULE
*****
 26 28 0 0 0
SMALL
GASTEIGER

@<TRIPOS>ATOM
      1 C         137.7342  140.0741  162.3392 C.3     1  UNL1        0.1111
      2 C         137.4253  139.1412  161.2059 C.3     1  UNL1        0.1598
      3 O         138.4120  138.0123  161.2528 O.3     1  UNL1       -0.3519
      4 C         139.3306  138.2475  162.4150 C.3     1  UNL1        0.1480
      5 C         138.9117  139.5218  163.0865 C.3     1  UNL1        0.0704
      6 C         139.5571  140.1359  164.2933 C.ar    1  UNL1       -0.0186
      7 C         138.9990  139.8689  165.6598 C.ar    1  UNL1       -0.0041
      8 C         139.6444  140.4830  166.8665 C.ar    1  UNL1        0.0012
      9 C         140.8478  141.3640  166.7069 C.ar    1  UNL1        0.0176
     10 C         141.4059  141.6310  165.3404 C.ar    1  UNL1        0.0012
     11 C         140.7605  141.0169  164.1336 C.ar    1  UNL1       -0.0041
     12 C         141.4932  141.9781  167.9137 C.ar    1  UNL1        0.0815
     13 C         142.9409  141.7155  168.2054 C.ar    1  UNL1        0.0215
     14 C         143.5863  142.3296  169.4123 C.ar    1  UNL1        0.0328
     15 C         142.7839  143.2063  170.3274 C.ar    1  UNL1        0.1592
     16 F         143.4292  143.8204  171.5342 F       1  UNL1       -0.2025
     17 C         141.3361  143.4689  170.0357 C.ar    1  UNL1        0.1283
     18 N         140.6908  142.8549  168.8289 N.ar    1  UNL1       -0.2415
     19 N         136.9953  141.3375  162.6675 N.3     1  UNL1       -0.1819
     20 H         136.3680  141.5235  161.8850 H       1  UNL1        0.1485
     21 S         137.7545  142.6053  162.9247 S.O2    1  UNL1        0.0391
     22 O         138.1589  142.6559  161.4811 O.2     1  UNL1       -0.1576
     23 O         137.3502  142.5547  164.3682 O.2     1  UNL1       -0.1576
     24 C         139.2848  144.5238  162.0717 C.3     1  UNL1        0.0270
     25 C         138.5138  143.8731  163.1818 C.3     1  UNL1        0.1457
     26 C         138.5022  144.4902  164.5489 C.3     1  UNL1        0.0270
@<TRIPOS>BOND
     1    24    25    1
     2    25    26    1
     3    25    21    1
     4    21    22    2
     5    21    23    2
     6    21    19    1
     7     1    19    1
     8     1     2    1
     9     2     3    1
    10     3     4    1
    11     4     5    1
    12     5     6    1
    13     6     7   ar
    14     7     8   ar
    15     8     9   ar
    16     9    12    1
    17    12    13   ar
    18    13    14   ar
    19    14    15   ar
    20    15    16    1
    21    15    17   ar
    22    17    18   ar
    23     9    10   ar
    24    10    11   ar
    25     5     1    1
    26    11     6   ar
    27    18    12   ar
    28    19    20    1
@<TRIPOS>MOLECULE
*****
 26 28 0 0 0
SMALL
GASTEIGER

@<TRIPOS>ATOM
      1 C         137.7523  140.3915  161.8077 C.3     1  UNL1        0.1111
      2 C         137.5574  139.9173  160.3981 C.3     1  UNL1        0.1598
      3 O         138.5404  138.8140  160.1400 O.3     1  UNL1       -0.3519
      4 C         139.3428  138.6065  161.3902 C.3     1  UNL1        0.1480
      5 C         138.8558  139.5814  162.4209 C.3     1  UNL1        0.0704
      6 C         139.3802  139.7216  163.8193 C.ar    1  UNL1       -0.0186
      7 C         140.6300  140.5103  164.0761 C.ar    1  UNL1       -0.0041
      8 C         141.1543  140.6504  165.4744 C.ar    1  UNL1        0.0012
      9 C         140.4289  140.0018  166.6160 C.ar    1  UNL1        0.0176
     10 C         139.1791  139.2131  166.3592 C.ar    1  UNL1        0.0012
     11 C         138.6548  139.0730  164.9608 C.ar    1  UNL1       -0.0041
     12 C         140.9533  140.1420  168.0143 C.ar    1  UNL1        0.0815
     13 C         142.3813  140.5396  168.2435 C.ar    1  UNL1        0.0215
     14 C         142.9057  140.6798  169.6419 C.ar    1  UNL1        0.0328
     15 C         142.0020  140.4223  170.8111 C.ar    1  UNL1        0.1592
     16 F         142.5264  140.5624  172.2094 F       1  UNL1       -0.2025
     17 C         140.5739  140.0247  170.5819 C.ar    1  UNL1        0.1283
     18 N         140.0496  139.8845  169.1835 N.ar    1  UNL1       -0.2415
     19 N         136.9794  141.4841  162.4852 N.3     1  UNL1       -0.1819
     20 H         136.2464  141.7718  161.8369 H       1  UNL1        0.1485
     21 S         137.6798  142.7340  162.9292 S.O2    1  UNL1        0.0391
     22 O         137.8817  143.1298  161.4965 O.2     1  UNL1       -0.1576
     23 O         137.4779  142.3382  164.3618 O.2     1  UNL1       -0.1576
     24 C         138.3093  144.4139  164.8085 C.3     1  UNL1        0.0270
     25 C         138.3802  143.9839  163.3732 C.3     1  UNL1        0.1457
     26 C         139.1514  144.8039  162.3818 C.3     1  UNL1        0.0270
@<TRIPOS>BOND
     1    24    25    1
     2    25    26    1
     3    25    21    1
     4    21    22    2
     5    21    23    2
     6    21    19    1
     7     1    19    1
     8     1     2    1
     9     2     3    1
    10     3     4    1
    11     4     5    1
    12     5     6    1
    13     6     7   ar
    14     7     8   ar
    15     8     9   ar
    16     9    12    1
    17    12    13   ar
    18    13    14   ar
    19    14    15   ar
    20    15    16    1
    21    15    17   ar
    22    17    18   ar
    23     9    10   ar
    24    10    11   ar
    25     5     1    1
    26    11     6   ar
    27    18    12   ar
    28    19    20    1
@<TRIPOS>MOLECULE
*****
 26 28 0 0 0
SMALL
GASTEIGER

@<TRIPOS>ATOM
      1 C         141.4120  144.6054  161.3110 C.3     1  UNL1        0.1111
      2 C         140.9798  144.8323  159.8926 C.3     1  UNL1        0.1598
      3 O         139.6658  144.1371  159.6916 O.3     1  UNL1       -0.3519
      4 C         139.2861  143.4805  160.9857 C.3     1  UNL1        0.1480
      5 C         140.3653  143.7700  161.9866 C.3     1  UNL1        0.0704
      6 C         140.3929  143.3055  163.4126 C.ar    1  UNL1       -0.0186
      7 C         140.9176  141.9406  163.7468 C.ar    1  UNL1       -0.0041
      8 C         140.9452  141.4762  165.1728 C.ar    1  UNL1        0.0012
      9 C         140.4480  142.3767  166.2646 C.ar    1  UNL1        0.0176
     10 C         139.9233  143.7415  165.9304 C.ar    1  UNL1        0.0012
     11 C         139.8957  144.2060  164.5044 C.ar    1  UNL1       -0.0041
     12 C         140.4756  141.9122  167.6907 C.ar    1  UNL1        0.0815
     13 C         140.4540  142.9145  168.8064 C.ar    1  UNL1        0.0215
     14 C         140.4816  142.4500  170.2325 C.ar    1  UNL1        0.0328
     15 C         140.5308  140.9832  170.5427 C.ar    1  UNL1        0.1592
     16 F         140.5584  140.5187  171.9687 F       1  UNL1       -0.2025
     17 C         140.5524  139.9810  169.4268 C.ar    1  UNL1        0.1283
     18 N         140.5248  140.4455  168.0009 N.ar    1  UNL1       -0.2415
     19 N         142.6701  145.1231  161.9427 N.3     1  UNL1       -0.1819
     20 H         143.2668  145.4523  161.1838 H       1  UNL1        0.1485
     21 S         143.5107  144.2167  162.7923 S.O2    1  UNL1        0.0391
     22 O         143.2809  145.1115  163.9742 O.2     1  UNL1       -0.1576
     23 O         143.7406  143.3221  161.6106 O.2     1  UNL1       -0.1576
     24 C         144.3504  143.4669  165.1339 C.3     1  UNL1        0.0270
     25 C         144.3513  143.3105  163.6421 C.3     1  UNL1        0.1457
     26 C         145.1929  142.2477  163.0000 C.3     1  UNL1        0.0270
@<TRIPOS>BOND
     1    24    25    1
     2    25    26    1
     3    25    21    1
     4    21    22    2
     5    21    23    2
     6    21    19    1
     7     1    19    1
     8     1     2    1
     9     2     3    1
    10     3     4    1
    11     4     5    1
    12     5     6    1
    13     6     7   ar
    14     7     8   ar
    15     8     9   ar
    16     9    12    1
    17    12    13   ar
    18    13    14   ar
    19    14    15   ar
    20    15    16    1
    21    15    17   ar
    22    17    18   ar
    23     9    10   ar
    24    10    11   ar
    25     5     1    1
    26    11     6   ar
    27    18    12   ar
    28    19    20    1
@<TRIPOS>MOLECULE
*****
 26 28 0 0 0
SMALL
GASTEIGER

@<TRIPOS>ATOM
      1 C         141.4552  140.8088  169.4425 C.3     1  UNL1        0.1111
      2 C         141.3730  140.8567  170.9395 C.3     1  UNL1        0.1598
      3 O         139.9246  140.8046  171.3261 O.3     1  UNL1       -0.3519
      4 C         139.1117  140.7244  170.0680 C.3     1  UNL1        0.1480
      5 C         140.0577  140.7270  168.9039 C.3     1  UNL1        0.0704
      6 C         139.6735  140.6597  167.4554 C.ar    1  UNL1       -0.0186
      7 C         139.9074  141.8414  166.5618 C.ar    1  UNL1       -0.0041
      8 C         139.5232  141.7741  165.1134 C.ar    1  UNL1        0.0012
      9 C         138.9051  140.5250  164.5587 C.ar    1  UNL1        0.0176
     10 C         138.6712  139.3432  165.4524 C.ar    1  UNL1        0.0012
     11 C         139.0554  139.4106  166.9008 C.ar    1  UNL1       -0.0041
     12 C         138.5209  140.4576  163.1103 C.ar    1  UNL1        0.0815
     13 C         138.0314  139.1670  162.5234 C.ar    1  UNL1        0.0215
     14 C         137.6472  139.0996  161.0749 C.ar    1  UNL1        0.0328
     15 C         137.7525  140.3230  160.2134 C.ar    1  UNL1        0.1592
     16 F         137.3684  140.2558  158.7651 F       1  UNL1       -0.2025
     17 C         138.2421  141.6138  160.8004 C.ar    1  UNL1        0.1283
     18 N         138.6262  141.6810  162.2488 N.ar    1  UNL1       -0.2415
     19 N         142.7140  140.8375  168.6273 N.3     1  UNL1       -0.1819
     20 H         142.7360  141.7394  168.1513 H       1  UNL1        0.1485
     21 S         142.9543  139.7898  167.5812 S.O2    1  UNL1        0.0391
     22 O         142.9484  138.7293  168.6420 O.2     1  UNL1       -0.1576
     23 O         142.9602  140.8502  166.5204 O.2     1  UNL1       -0.1576
     24 C         142.4165  138.7699  165.2530 C.3     1  UNL1        0.0270
     25 C         143.1946  138.7420  166.5351 C.3     1  UNL1        0.1457
     26 C         144.2129  137.6662  166.7711 C.3     1  UNL1        0.0270
@<TRIPOS>BOND
     1    24    25    1
     2    25    26    1
     3    25    21    1
     4    21    22    2
     5    21    23    2
     6    21    19    1
     7     1    19    1
     8     1     2    1
     9     2     3    1
    10     3     4    1
    11     4     5    1
    12     5     6    1
    13     6     7   ar
    14     7     8   ar
    15     8     9   ar
    16     9    12    1
    17    12    13   ar
    18    13    14   ar
    19    14    15   ar
    20    15    16    1
    21    15    17   ar
    22    17    18   ar
    23     9    10   ar
    24    10    11   ar
    25     5     1    1
    26    11     6   ar
    27    18    12   ar
    28    19    20    1
@<TRIPOS>MOLECULE
*****
 26 28 0 0 0
SMALL
GASTEIGER

@<TRIPOS>ATOM
      1 C         142.6608  137.8913  161.8290 C.3     1  UNL1        0.1111
      2 C         143.3552  137.7891  160.5034 C.3     1  UNL1        0.1598
      3 O         144.3353  138.9204  160.4051 O.3     1  UNL1       -0.3519
      4 C         144.2465  139.7218  161.6700 C.3     1  UNL1        0.1480
      5 C         143.2115  139.0858  162.5500 C.3     1  UNL1        0.0704
      6 C         142.7997  139.5608  163.9120 C.ar    1  UNL1       -0.0186
      7 C         141.8437  140.7086  164.0486 C.ar    1  UNL1       -0.0041
      8 C         141.4320  141.1836  165.4104 C.ar    1  UNL1        0.0012
      9 C         141.9762  140.5109  166.6357 C.ar    1  UNL1        0.0176
     10 C         142.9323  139.3632  166.4991 C.ar    1  UNL1        0.0012
     11 C         143.3440  138.8882  165.1372 C.ar    1  UNL1       -0.0041
     12 C         141.5644  140.9860  167.9976 C.ar    1  UNL1        0.0815
     13 C         141.2968  139.9927  169.0893 C.ar    1  UNL1        0.0215
     14 C         140.8850  140.4678  170.4512 C.ar    1  UNL1        0.0328
     15 C         140.7408  141.9362  170.7214 C.ar    1  UNL1        0.1592
     16 F         140.3291  142.4113  172.0833 F       1  UNL1       -0.2025
     17 C         141.0085  142.9295  169.6297 C.ar    1  UNL1        0.1283
     18 N         141.4202  142.4544  168.2678 N.ar    1  UNL1       -0.2415
     19 N         141.6015  136.9621  162.3433 N.3     1  UNL1       -0.1819
     20 H         141.3073  136.3857  161.5549 H       1  UNL1        0.1485
     21 S         140.3535  137.5171  162.9633 S.O2    1  UNL1        0.0391
     22 O         139.9893  138.1576  161.6567 O.2     1  UNL1       -0.1576
     23 O         140.7176  136.8767  164.2698 O.2     1  UNL1       -0.1576
     24 C         138.1585  138.8917  162.7575 C.3     1  UNL1        0.0270
     25 C         139.1054  138.0722  163.5831 C.3     1  UNL1        0.1457
     26 C         138.8043  137.8077  165.0286 C.3     1  UNL1        0.0270
@<TRIPOS>BOND
     1    24    25    1
     2    25    26    1
     3    25    21    1
     4    21    22    2
     5    21    23    2
     6    21    19    1
     7     1    19    1
     8     1     2    1
     9     2     3    1
    10     3     4    1
    11     4     5    1
    12     5     6    1
    13     6     7   ar
    14     7     8   ar
    15     8     9   ar
    16     9    12    1
    17    12    13   ar
    18    13    14   ar
    19    14    15   ar
    20    15    16    1
    21    15    17   ar
    22    17    18   ar
    23     9    10   ar
    24    10    11   ar
    25     5     1    1
    26    11     6   ar
    27    18    12   ar
    28    19    20    1
@<TRIPOS>MOLECULE
*****
 26 28 0 0 0
SMALL
GASTEIGER

@<TRIPOS>ATOM
      1 C         140.1896  141.3787  169.4591 C.3     1  UNL1        0.1111
      2 C         139.6896  141.8137  170.8048 C.3     1  UNL1        0.1598
      3 O         139.8438  143.3029  170.8974 O.3     1  UNL1       -0.3519
      4 C         140.4391  143.7882  169.6090 C.3     1  UNL1        0.1480
      5 C         140.6529  142.5990  168.7201 C.3     1  UNL1        0.0704
      6 C         141.2287  142.6255  167.3352 C.ar    1  UNL1       -0.0186
      7 C         142.6516  142.2094  167.1066 C.ar    1  UNL1       -0.0041
      8 C         143.2274  142.2359  165.7218 C.ar    1  UNL1        0.0012
      9 C         142.3803  142.6785  164.5656 C.ar    1  UNL1        0.0176
     10 C         140.9575  143.0945  164.7943 C.ar    1  UNL1        0.0012
     11 C         140.3817  143.0680  166.1791 C.ar    1  UNL1       -0.0041
     12 C         142.9562  142.7050  163.1808 C.ar    1  UNL1        0.0815
     13 C         144.4031  142.3746  162.9638 C.ar    1  UNL1        0.0215
     14 C         144.9790  142.4011  161.5789 C.ar    1  UNL1        0.0328
     15 C         144.1079  142.7580  160.4111 C.ar    1  UNL1        0.1592
     16 F         144.6837  142.7845  159.0263 F       1  UNL1       -0.2025
     17 C         142.6608  143.0884  160.6282 C.ar    1  UNL1        0.1283
     18 N         142.0850  143.0619  162.0130 N.ar    1  UNL1       -0.2415
     19 N         140.2209  139.9705  168.9432 N.3     1  UNL1       -0.1819
     20 H         141.1548  139.8171  168.5627 H       1  UNL1        0.1485
     21 S         139.2469  139.5364  167.8884 S.O2    1  UNL1        0.0391
     22 O         138.1645  139.4503  168.9234 O.2     1  UNL1       -0.1576
     23 O         140.3291  139.6224  166.8535 O.2     1  UNL1       -0.1576
     24 C         138.2195  139.8231  165.5194 C.3     1  UNL1        0.0270
     25 C         138.2727  139.1021  166.8337 C.3     1  UNL1        0.1457
     26 C         137.3518  137.9469  167.0932 C.3     1  UNL1        0.0270
@<TRIPOS>BOND
     1    24    25    1
     2    25    26    1
     3    25    21    1
     4    21    22    2
     5    21    23    2
     6    21    19    1
     7     1    19    1
     8     1     2    1
     9     2     3    1
    10     3     4    1
    11     4     5    1
    12     5     6    1
    13     6     7   ar
    14     7     8   ar
    15     8     9   ar
    16     9    12    1
    17    12    13   ar
    18    13    14   ar
    19    14    15   ar
    20    15    16    1
    21    15    17   ar
    22    17    18   ar
    23     9    10   ar
    24    10    11   ar
    25     5     1    1
    26    11     6   ar
    27    18    12   ar
    28    19    20    1
@<TRIPOS>MOLECULE
*****
 26 28 0 0 0
SMALL
GASTEIGER

@<TRIPOS>ATOM
      1 C         140.6015  141.2330  169.2284 C.3     1  UNL1        0.1111
      2 C         140.4627  141.3613  170.7164 C.3     1  UNL1        0.1598
      3 O         140.4352  142.8223  171.0552 O.3     1  UNL1       -0.3519
      4 C         140.5569  143.5969  169.7764 C.3     1  UNL1        0.1480
      5 C         140.6597  142.6147  168.6474 C.3     1  UNL1        0.0704
      6 C         140.7967  142.9545  167.1928 C.ar    1  UNL1       -0.0186
      7 C         142.0658  142.6286  166.4628 C.ar    1  UNL1       -0.0041
      8 C         142.2027  142.9685  165.0082 C.ar    1  UNL1        0.0012
      9 C         141.0705  143.6341  164.2837 C.ar    1  UNL1        0.0176
     10 C         139.8013  143.9600  165.0138 C.ar    1  UNL1        0.0012
     11 C         139.6644  143.6202  166.4683 C.ar    1  UNL1       -0.0041
     12 C         141.2074  143.9740  162.8291 C.ar    1  UNL1        0.0815
     13 C         140.3215  145.0176  162.2161 C.ar    1  UNL1        0.0215
     14 C         140.4584  145.3574  160.7615 C.ar    1  UNL1        0.0328
     15 C         141.4814  144.6536  159.9200 C.ar    1  UNL1        0.1592
     16 F         141.6184  144.9933  158.4654 F       1  UNL1       -0.2025
     17 C         142.3674  143.6099  160.5331 C.ar    1  UNL1        0.1283
     18 N         142.2304  143.2701  161.9876 N.ar    1  UNL1       -0.2415
     19 N         140.6700  139.9485  168.4568 N.3     1  UNL1       -0.1819
     20 H         141.5258  139.9830  167.9029 H       1  UNL1        0.1485
     21 S         139.5610  139.5776  167.5175 S.O2    1  UNL1        0.0391
     22 O         140.5293  139.5837  166.3719 O.2     1  UNL1       -0.1576
     23 O         138.5927  139.5716  168.6630 O.2     1  UNL1       -0.1576
     24 C         138.2384  139.9966  165.3209 C.3     1  UNL1        0.0270
     25 C         138.4520  139.2068  166.5780 C.3     1  UNL1        0.1457
     26 C         137.5566  138.0460  166.8957 C.3     1  UNL1        0.0270
@<TRIPOS>BOND
     1    24    25    1
     2    25    26    1
     3    25    21    1
     4    21    22    2
     5    21    23    2
     6    21    19    1
     7     1    19    1
     8     1     2    1
     9     2     3    1
    10     3     4    1
    11     4     5    1
    12     5     6    1
    13     6     7   ar
    14     7     8   ar
    15     8     9   ar
    16     9    12    1
    17    12    13   ar
    18    13    14   ar
    19    14    15   ar
    20    15    16    1
    21    15    17   ar
    22    17    18   ar
    23     9    10   ar
    24    10    11   ar
    25     5     1    1
    26    11     6   ar
    27    18    12   ar
    28    19    20    1
@<TRIPOS>MOLECULE
*****
 26 28 0 0 0
SMALL
GASTEIGER

@<TRIPOS>ATOM
      1 C         139.6285  143.8633  160.9584 C.3     1  UNL1        0.1111
      2 C         140.1121  144.4692  159.6742 C.3     1  UNL1        0.1598
      3 O         141.5278  144.9208  159.8789 O.3     1  UNL1       -0.3519
      4 C         141.9192  144.5939  161.2895 C.3     1  UNL1        0.1480
      5 C         140.7454  143.9403  161.9567 C.3     1  UNL1        0.0704
      6 C         140.6970  143.4499  163.3735 C.ar    1  UNL1       -0.0186
      7 C         141.4629  142.2223  163.7688 C.ar    1  UNL1       -0.0041
      8 C         141.4145  141.7320  165.1855 C.ar    1  UNL1        0.0012
      9 C         140.6001  142.4693  166.2069 C.ar    1  UNL1        0.0176
     10 C         139.8342  143.6969  165.8116 C.ar    1  UNL1        0.0012
     11 C         139.8827  144.1872  164.3949 C.ar    1  UNL1       -0.0041
     12 C         140.5517  141.9789  167.6237 C.ar    1  UNL1        0.0815
     13 C         140.4714  142.9607  168.7549 C.ar    1  UNL1        0.0215
     14 C         140.4230  142.4703  170.1717 C.ar    1  UNL1        0.0328
     15 C         140.4549  140.9981  170.4573 C.ar    1  UNL1        0.1592
     16 F         140.4065  140.5076  171.8740 F       1  UNL1       -0.2025
     17 C         140.5353  140.0162  169.3260 C.ar    1  UNL1        0.1283
     18 N         140.5837  140.5067  167.9093 N.ar    1  UNL1       -0.2415
     19 N         138.2672  143.2823  161.2014 N.3     1  UNL1       -0.1819
     20 H         137.7813  143.9231  161.8289 H       1  UNL1        0.1485
     21 S         138.1317  141.9108  161.7935 S.O2    1  UNL1        0.0391
     22 O         139.0418  141.3636  160.7341 O.2     1  UNL1       -0.1576
     23 O         137.2217  142.4579  162.8529 O.2     1  UNL1       -0.1576
     24 C         138.0931  140.3503  163.8704 C.3     1  UNL1        0.0270
     25 C         137.9963  140.5392  162.3855 C.3     1  UNL1        0.1457
     26 C         137.7641  139.3565  161.4926 C.3     1  UNL1        0.0270
@<TRIPOS>BOND
     1    24    25    1
     2    25    26    1
     3    25    21    1
     4    21    22    2
     5    21    23    2
     6    21    19    1
     7     1    19    1
     8     1     2    1
     9     2     3    1
    10     3     4    1
    11     4     5    1
    12     5     6    1
    13     6     7   ar
    14     7     8   ar
    15     8     9   ar
    16     9    12    1
    17    12    13   ar
    18    13    14   ar
    19    14    15   ar
    20    15    16    1
    21    15    17   ar
    22    17    18   ar
    23     9    10   ar
    24    10    11   ar
    25     5     1    1
    26    11     6   ar
    27    18    12   ar
    28    19    20    1
