@<TRIPOS>MOLECULE
*****
 33 36 0 0 0
SMALL
GASTEIGER

@<TRIPOS>ATOM
      1 C         141.0999  140.4832  167.6233 C.ar    1  UNL1       -0.0017
      2 C         142.0746  139.9447  168.6282 C.ar    1  UNL1        0.0293
      3 C         142.7334  140.8722  169.6058 C.ar    1  UNL1        0.1401
      4 F         143.7081  140.3336  170.6107 F       1  UNL1       -0.2042
      5 C         142.4174  142.3383  169.5786 C.ar    1  UNL1        0.0293
      6 C         141.4426  142.8768  168.5737 C.ar    1  UNL1       -0.0019
      7 C         140.7838  141.9493  167.5961 C.ar    1  UNL1       -0.0214
      8 C         140.6096  137.9013  164.6495 C.ar    1  UNL1        0.0644
      9 C         139.1237  137.7007  164.6904 C.ar    1  UNL1        0.0158
     10 C         138.2964  138.4276  165.7089 C.ar    1  UNL1        0.0013
     11 C         138.9551  139.3551  166.6865 C.ar    1  UNL1        0.0001
     12 C         140.4411  139.5557  166.6456 C.ar    1  UNL1        0.0010
     13 C         141.2683  138.8288  165.6272 C.ar    1  UNL1        0.0158
     14 N         141.4368  137.1744  163.6311 N.pl3   1  UNL1       -0.2187
     15 H         141.7100  136.2425  163.7931 H       1  UNL1        0.1734
     16 C         142.2587  138.5601  161.1003 C.3     1  UNL1        0.1996
     17 S         141.8477  137.8672  162.3657 S.O2    1  UNL1        0.0558
     18 O         140.5367  137.4978  161.7377 O.2     1  UNL1       -0.1544
     19 O         143.1588  138.2367  162.9938 O.2     1  UNL1       -0.1544
     20 C         139.8090  142.4878  166.5911 C.3     1  UNL1        0.0352
     21 C         140.2059  142.6047  165.1493 C.3     1  UNL1        0.0520
     22 C         141.4602  143.3363  164.7736 C.ar    1  UNL1        0.0011
     23 C         142.7997  142.7318  165.0742 C.ar    1  UNL1       -0.0008
     24 C         144.0541  143.4634  164.6985 C.ar    1  UNL1        0.0204
     25 C         143.9691  144.7996  164.0221 C.ar    1  UNL1        0.0989
     26 N         142.6296  145.4041  163.7215 N.ar    1  UNL1       -0.2426
     27 C         141.3752  144.6724  164.0972 C.ar    1  UNL1        0.0949
     28 C         139.3482  141.9898  164.0832 C.ar    1  UNL1        0.0011
     29 C         139.9748  141.1579  163.0037 C.ar    1  UNL1       -0.0008
     30 C         139.1171  140.5431  161.9376 C.ar    1  UNL1        0.0204
     31 C         137.6330  140.7603  161.9510 C.ar    1  UNL1        0.0989
     32 N         137.0065  141.5922  163.0306 N.ar    1  UNL1       -0.2426
     33 C         137.8641  142.2070  164.0966 C.ar    1  UNL1        0.0949
@<TRIPOS>BOND
     1    16    17    1
     2    17    18    2
     3    17    19    2
     4    17    14    1
     5    14     8    1
     6     8     9   ar
     7     9    10   ar
     8    10    11   ar
     9    11    12   ar
    10    12     1    1
    11     1     2   ar
    12     2     3   ar
    13     3     4    1
    14     3     5   ar
    15     5     6   ar
    16     6     7   ar
    17     7    20    1
    18    20    21    1
    19    21    22    1
    20    22    23   ar
    21    23    24   ar
    22    24    25   ar
    23    25    26   ar
    24    26    27   ar
    25    21    28    1
    26    28    29   ar
    27    29    30   ar
    28    30    31   ar
    29    31    32   ar
    30    32    33   ar
    31    12    13   ar
    32    13     8   ar
    33     7     1   ar
    34    27    22   ar
    35    33    28   ar
    36    14    15    1
@<TRIPOS>MOLECULE
*****
 33 36 0 0 0
SMALL
GASTEIGER

@<TRIPOS>ATOM
      1 C         141.1126  140.4717  167.6302 C.ar    1  UNL1       -0.0017
      2 C         142.0922  139.9333  168.6304 C.ar    1  UNL1        0.0293
      3 C         142.7529  140.8603  169.6072 C.ar    1  UNL1        0.1401
      4 F         143.7324  140.3219  170.6074 F       1  UNL1       -0.2042
      5 C         142.4339  142.3259  169.5838 C.ar    1  UNL1        0.0293
      6 C         141.4543  142.8643  168.5835 C.ar    1  UNL1       -0.0019
      7 C         140.7936  141.9372  167.6067 C.ar    1  UNL1       -0.0214
      8 C         140.6163  137.8927  164.6549 C.ar    1  UNL1        0.0644
      9 C         139.1307  137.6905  164.6999 C.ar    1  UNL1        0.0158
     10 C         138.3057  138.4154  165.7216 C.ar    1  UNL1        0.0013
     11 C         138.9663  139.3424  166.6984 C.ar    1  UNL1        0.0001
     12 C         140.4519  139.5446  166.6534 C.ar    1  UNL1        0.0010
     13 C         141.2769  138.8197  165.6317 C.ar    1  UNL1        0.0158
     14 N         141.4413  137.1678  163.6331 N.pl3   1  UNL1       -0.2187
     15 H         141.6947  136.2282  163.7817 H       1  UNL1        0.1734
     16 C         142.3191  138.5814  161.1369 C.3     1  UNL1        0.1996
     17 S         141.8802  137.8746  162.3851 S.O2    1  UNL1        0.0558
     18 O         140.5886  137.5018  161.7197 O.2     1  UNL1       -0.1544
     19 O         143.1718  138.2474  163.0504 O.2     1  UNL1       -0.1544
     20 C         139.8140  142.4756  166.6065 C.3     1  UNL1        0.0352
     21 C         140.2053  142.5963  165.1634 C.3     1  UNL1        0.0520
     22 C         139.3459  141.9808  164.0993 C.ar    1  UNL1        0.0011
     23 C         139.9705  141.1473  163.0198 C.ar    1  UNL1       -0.0008
     24 C         139.1111  140.5318  161.9556 C.ar    1  UNL1        0.0204
     25 C         137.6271  140.7497  161.9709 C.ar    1  UNL1        0.0989
     26 N         137.0025  141.5832  163.0503 N.ar    1  UNL1       -0.2426
     27 C         137.8620  142.1987  164.1146 C.ar    1  UNL1        0.0949
     28 C         141.4562  143.3326  164.7846 C.ar    1  UNL1        0.0011
     29 C         142.7984  142.7249  165.0658 C.ar    1  UNL1       -0.0008
     30 C         144.0493  143.4611  164.6869 C.ar    1  UNL1        0.0204
     31 C         143.9578  144.8051  164.0270 C.ar    1  UNL1        0.0989
     32 N         142.6154  145.4127  163.7459 N.ar    1  UNL1       -0.2426
     33 C         141.3647  144.6765  164.1247 C.ar    1  UNL1        0.0949
@<TRIPOS>BOND
     1    16    17    1
     2    17    18    2
     3    17    19    2
     4    17    14    1
     5    14     8    1
     6     8     9   ar
     7     9    10   ar
     8    10    11   ar
     9    11    12   ar
    10    12     1    1
    11     1     2   ar
    12     2     3   ar
    13     3     4    1
    14     3     5   ar
    15     5     6   ar
    16     6     7   ar
    17     7    20    1
    18    20    21    1
    19    21    22    1
    20    22    23   ar
    21    23    24   ar
    22    24    25   ar
    23    25    26   ar
    24    26    27   ar
    25    21    28    1
    26    28    29   ar
    27    29    30   ar
    28    30    31   ar
    29    31    32   ar
    30    32    33   ar
    31    12    13   ar
    32    13     8   ar
    33     7     1   ar
    34    27    22   ar
    35    33    28   ar
    36    14    15    1
@<TRIPOS>MOLECULE
*****
 33 36 0 0 0
SMALL
GASTEIGER

@<TRIPOS>ATOM
      1 C         139.1236  140.5578  163.4313 C.ar    1  UNL1       -0.0017
      2 C         139.1874  140.0154  162.0343 C.ar    1  UNL1        0.0293
      3 C         139.1730  138.5332  161.8038 C.ar    1  UNL1        0.1401
      4 F         139.2368  137.9908  160.4068 F       1  UNL1       -0.2042
      5 C         139.0946  137.5936  162.9704 C.ar    1  UNL1        0.0293
      6 C         139.0308  138.1361  164.3674 C.ar    1  UNL1       -0.0019
      7 C         139.0452  139.6182  164.5979 C.ar    1  UNL1       -0.0214
      8 C         140.2922  144.3501  163.3768 C.ar    1  UNL1        0.0644
      9 C         139.1671  145.0042  164.1227 C.ar    1  UNL1        0.0158
     10 C         138.0275  144.1761  164.6381 C.ar    1  UNL1        0.0013
     11 C         138.0130  142.6940  164.4077 C.ar    1  UNL1        0.0001
     12 C         139.1381  142.0400  163.6618 C.ar    1  UNL1        0.0010
     13 C         140.2776  142.8680  163.1463 C.ar    1  UNL1        0.0158
     14 N         141.4317  145.1782  162.8613 N.pl3   1  UNL1       -0.2187
     15 H         141.2771  146.1101  162.5842 H       1  UNL1        0.1734
     16 C         144.1820  143.9944  162.6749 C.3     1  UNL1        0.1996
     17 S         142.8069  144.5863  162.7681 S.O2    1  UNL1        0.0558
     18 O         142.9537  144.6929  164.2571 O.2     1  UNL1       -0.1544
     19 O         142.6600  144.4797  161.2791 O.2     1  UNL1       -0.1544
     20 C         138.9814  140.1607  165.9949 C.3     1  UNL1        0.0352
     21 C         140.2418  140.5640  166.7012 C.3     1  UNL1        0.0520
     22 C         140.1676  141.3009  168.0055 C.ar    1  UNL1        0.0011
     23 C         140.5065  142.7610  168.0624 C.ar    1  UNL1       -0.0008
     24 C         140.4323  143.4979  169.3667 C.ar    1  UNL1        0.0204
     25 C         140.0193  142.7747  170.6144 C.ar    1  UNL1        0.0989
     26 N         139.6805  141.3146  170.5575 N.ar    1  UNL1       -0.2426
     27 C         139.7547  140.5777  169.2531 C.ar    1  UNL1        0.0949
     28 C         141.5763  140.2304  166.1030 C.ar    1  UNL1        0.0011
     29 C         142.1302  138.8424  166.2321 C.ar    1  UNL1       -0.0008
     30 C         143.4647  138.5088  165.6339 C.ar    1  UNL1        0.0204
     31 C         144.2453  139.5632  164.9066 C.ar    1  UNL1        0.0989
     32 N         143.6914  140.9512  164.7776 N.ar    1  UNL1       -0.2426
     33 C         142.3569  141.2848  165.3757 C.ar    1  UNL1        0.0949
@<TRIPOS>BOND
     1    16    17    1
     2    17    18    2
     3    17    19    2
     4    17    14    1
     5    14     8    1
     6     8     9   ar
     7     9    10   ar
     8    10    11   ar
     9    11    12   ar
    10    12     1    1
    11     1     2   ar
    12     2     3   ar
    13     3     4    1
    14     3     5   ar
    15     5     6   ar
    16     6     7   ar
    17     7    20    1
    18    20    21    1
    19    21    22    1
    20    22    23   ar
    21    23    24   ar
    22    24    25   ar
    23    25    26   ar
    24    26    27   ar
    25    21    28    1
    26    28    29   ar
    27    29    30   ar
    28    30    31   ar
    29    31    32   ar
    30    32    33   ar
    31    12    13   ar
    32    13     8   ar
    33     7     1   ar
    34    27    22   ar
    35    33    28   ar
    36    14    15    1
@<TRIPOS>MOLECULE
*****
 33 36 0 0 0
SMALL
GASTEIGER

@<TRIPOS>ATOM
      1 C         139.1407  140.5812  163.4260 C.ar    1  UNL1       -0.0017
      2 C         139.2073  140.0439  162.0272 C.ar    1  UNL1        0.0293
      3 C         139.1829  138.5629  161.7906 C.ar    1  UNL1        0.1401
      4 F         139.2495  138.0256  160.3918 F       1  UNL1       -0.2042
      5 C         139.0920  137.6191  162.9530 C.ar    1  UNL1        0.0293
      6 C         139.0254  138.1565  164.3519 C.ar    1  UNL1       -0.0019
      7 C         139.0497  139.6375  164.5884 C.ar    1  UNL1       -0.0214
      8 C         140.3389  144.3645  163.3949 C.ar    1  UNL1        0.0644
      9 C         139.2138  145.0243  164.1355 C.ar    1  UNL1        0.0158
     10 C         138.0642  144.2031  164.6397 C.ar    1  UNL1        0.0013
     11 C         138.0399  142.7221  164.4032 C.ar    1  UNL1        0.0001
     12 C         139.1650  142.0623  163.6626 C.ar    1  UNL1        0.0010
     13 C         140.3145  142.8835  163.1584 C.ar    1  UNL1        0.0158
     14 N         141.4885  145.1857  162.8907 N.pl3   1  UNL1       -0.2187
     15 H         141.3482  146.1275  162.6403 H       1  UNL1        0.1734
     16 C         144.2149  143.9585  162.6453 C.3     1  UNL1        0.1996
     17 S         142.8517  144.5721  162.7680 S.O2    1  UNL1        0.0558
     18 O         143.0190  144.6463  164.2567 O.2     1  UNL1       -0.1544
     19 O         142.6843  144.4980  161.2792 O.2     1  UNL1       -0.1544
     20 C         138.9831  140.1749  165.9873 C.3     1  UNL1        0.0352
     21 C         140.2420  140.5764  166.6972 C.3     1  UNL1        0.0520
     22 C         141.5777  140.2495  166.0982 C.ar    1  UNL1        0.0011
     23 C         142.1295  138.8592  166.2093 C.ar    1  UNL1       -0.0008
     24 C         143.4653  138.5323  165.6102 C.ar    1  UNL1        0.0204
     25 C         144.2492  139.5958  164.9000 C.ar    1  UNL1        0.0989
     26 N         143.6974  140.9861  164.7888 N.ar    1  UNL1       -0.2426
     27 C         142.3616  141.3130  165.3879 C.ar    1  UNL1        0.0949
     28 C         140.1651  141.3049  168.0063 C.ar    1  UNL1        0.0011
     29 C         140.5251  142.7592  168.0775 C.ar    1  UNL1       -0.0008
     30 C         140.4482  143.4877  169.3866 C.ar    1  UNL1        0.0204
     31 C         140.0113  142.7616  170.6243 C.ar    1  UNL1        0.0989
     32 N         139.6514  141.3072  170.5530 N.ar    1  UNL1       -0.2426
     33 C         139.7283  140.5788  169.2440 C.ar    1  UNL1        0.0949
@<TRIPOS>BOND
     1    16    17    1
     2    17    18    2
     3    17    19    2
     4    17    14    1
     5    14     8    1
     6     8     9   ar
     7     9    10   ar
     8    10    11   ar
     9    11    12   ar
    10    12     1    1
    11     1     2   ar
    12     2     3   ar
    13     3     4    1
    14     3     5   ar
    15     5     6   ar
    16     6     7   ar
    17     7    20    1
    18    20    21    1
    19    21    22    1
    20    22    23   ar
    21    23    24   ar
    22    24    25   ar
    23    25    26   ar
    24    26    27   ar
    25    21    28    1
    26    28    29   ar
    27    29    30   ar
    28    30    31   ar
    29    31    32   ar
    30    32    33   ar
    31    12    13   ar
    32    13     8   ar
    33     7     1   ar
    34    27    22   ar
    35    33    28   ar
    36    14    15    1
@<TRIPOS>MOLECULE
*****
 33 36 0 0 0
SMALL
GASTEIGER

@<TRIPOS>ATOM
      1 C         142.2989  141.0011  167.3711 C.ar    1  UNL1       -0.0017
      2 C         142.7612  139.9028  168.2822 C.ar    1  UNL1        0.0293
      3 C         141.8740  139.4276  169.3944 C.ar    1  UNL1        0.1401
      4 F         142.3364  138.3293  170.3054 F       1  UNL1       -0.2042
      5 C         140.5245  140.0507  169.5956 C.ar    1  UNL1        0.0293
      6 C         140.0621  141.1490  168.6845 C.ar    1  UNL1       -0.0019
      7 C         140.9493  141.6242  167.5723 C.ar    1  UNL1       -0.0214
      8 C         144.4704  141.0091  164.0493 C.ar    1  UNL1        0.0644
      9 C         144.9604  142.4267  164.0344 C.ar    1  UNL1        0.0158
     10 C         144.5632  143.3691  165.1317 C.ar    1  UNL1        0.0013
     11 C         143.6761  142.8940  166.2439 C.ar    1  UNL1        0.0001
     12 C         143.1861  141.4764  166.2589 C.ar    1  UNL1        0.0010
     13 C         143.5833  140.5339  165.1616 C.ar    1  UNL1        0.0158
     14 N         144.8676  140.0667  162.9520 N.pl3   1  UNL1       -0.2187
     15 H         145.7859  139.7137  162.9147 H       1  UNL1        0.1734
     16 C         142.8638  139.2573  160.8713 C.3     1  UNL1        0.1996
     17 S         143.8657  139.6620  161.9117 S.O2    1  UNL1        0.0558
     18 O         143.6418  138.3654  162.6317 O.2     1  UNL1       -0.1544
     19 O         144.0897  140.9587  161.1917 O.2     1  UNL1       -0.1544
     20 C         140.4870  142.7225  166.6612 C.3     1  UNL1        0.0352
     21 C         140.0343  142.4004  165.2679 C.3     1  UNL1        0.0520
     22 C         139.9165  143.4924  164.2463 C.ar    1  UNL1        0.0011
     23 C         141.1191  144.3117  163.8822 C.ar    1  UNL1       -0.0008
     24 C         141.0013  145.4036  162.8606 C.ar    1  UNL1        0.0204
     25 C         139.6810  145.6764  162.2031 C.ar    1  UNL1        0.0989
     26 N         138.4784  144.8571  162.5672 N.ar    1  UNL1       -0.2426
     27 C         138.5962  143.7651  163.5889 C.ar    1  UNL1        0.0949
     28 C         139.6994  140.9863  164.8962 C.ar    1  UNL1        0.0011
     29 C         138.6400  140.2424  165.6540 C.ar    1  UNL1       -0.0008
     30 C         138.3051  138.8283  165.2823 C.ar    1  UNL1        0.0204
     31 C         139.0296  138.1580  164.1527 C.ar    1  UNL1        0.0989
     32 N         140.0891  138.9020  163.3949 N.ar    1  UNL1       -0.2426
     33 C         140.4239  140.3160  163.7666 C.ar    1  UNL1        0.0949
@<TRIPOS>BOND
     1    16    17    1
     2    17    18    2
     3    17    19    2
     4    17    14    1
     5    14     8    1
     6     8     9   ar
     7     9    10   ar
     8    10    11   ar
     9    11    12   ar
    10    12     1    1
    11     1     2   ar
    12     2     3   ar
    13     3     4    1
    14     3     5   ar
    15     5     6   ar
    16     6     7   ar
    17     7    20    1
    18    20    21    1
    19    21    22    1
    20    22    23   ar
    21    23    24   ar
    22    24    25   ar
    23    25    26   ar
    24    26    27   ar
    25    21    28    1
    26    28    29   ar
    27    29    30   ar
    28    30    31   ar
    29    31    32   ar
    30    32    33   ar
    31    12    13   ar
    32    13     8   ar
    33     7     1   ar
    34    27    22   ar
    35    33    28   ar
    36    14    15    1
@<TRIPOS>MOLECULE
*****
 33 36 0 0 0
SMALL
GASTEIGER

@<TRIPOS>ATOM
      1 C         142.2999  141.0061  167.3641 C.ar    1  UNL1       -0.0017
      2 C         142.7606  139.9076  168.2757 C.ar    1  UNL1        0.0293
      3 C         141.8730  139.4350  169.3888 C.ar    1  UNL1        0.1401
      4 F         142.3337  138.3365  170.3004 F       1  UNL1       -0.2042
      5 C         140.5248  140.0609  169.5903 C.ar    1  UNL1        0.0293
      6 C         140.0642  141.1594  168.6786 C.ar    1  UNL1       -0.0019
      7 C         140.9517  141.6320  167.5656 C.ar    1  UNL1       -0.0214
      8 C         144.4705  141.0070  164.0416 C.ar    1  UNL1        0.0644
      9 C         144.9623  142.4240  164.0248 C.ar    1  UNL1        0.0158
     10 C         144.5667  143.3683  165.1210 C.ar    1  UNL1        0.0013
     11 C         143.6793  142.8957  166.2341 C.ar    1  UNL1        0.0001
     12 C         143.1874  141.4788  166.2510 C.ar    1  UNL1        0.0010
     13 C         143.5830  140.5344  165.1547 C.ar    1  UNL1        0.0158
     14 N         144.8661  140.0627  162.9454 N.pl3   1  UNL1       -0.2187
     15 H         145.7849  139.7112  162.9062 H       1  UNL1        0.1734
     16 C         142.8575  139.2450  160.8724 C.3     1  UNL1        0.1996
     17 S         143.8618  139.6539  161.9089 S.O2    1  UNL1        0.0558
     18 O         143.6384  138.3608  162.6355 O.2     1  UNL1       -0.1544
     19 O         144.0853  140.9470  161.1824 O.2     1  UNL1       -0.1544
     20 C         140.4910  142.7306  166.6539 C.3     1  UNL1        0.0352
     21 C         140.0355  142.4082  165.2616 C.3     1  UNL1        0.0520
     22 C         139.6981  140.9943  164.8913 C.ar    1  UNL1        0.0011
     23 C         138.6380  140.2528  165.6505 C.ar    1  UNL1       -0.0008
     24 C         138.3006  138.8389  165.2803 C.ar    1  UNL1        0.0204
     25 C         139.0233  138.1665  164.1508 C.ar    1  UNL1        0.0989
     26 N         140.0834  138.9081  163.3916 N.ar    1  UNL1       -0.2426
     27 C         140.4208  140.3220  163.7619 C.ar    1  UNL1        0.0949
     28 C         139.9173  143.4998  164.2395 C.ar    1  UNL1        0.0011
     29 C         141.1180  144.3239  163.8802 C.ar    1  UNL1       -0.0008
     30 C         140.9998  145.4155  162.8581 C.ar    1  UNL1        0.0204
     31 C         139.6810  145.6828  162.1953 C.ar    1  UNL1        0.0989
     32 N         138.4803  144.8586  162.5547 N.ar    1  UNL1       -0.2426
     33 C         138.5985  143.7671  163.5768 C.ar    1  UNL1        0.0949
@<TRIPOS>BOND
     1    16    17    1
     2    17    18    2
     3    17    19    2
     4    17    14    1
     5    14     8    1
     6     8     9   ar
     7     9    10   ar
     8    10    11   ar
     9    11    12   ar
    10    12     1    1
    11     1     2   ar
    12     2     3   ar
    13     3     4    1
    14     3     5   ar
    15     5     6   ar
    16     6     7   ar
    17     7    20    1
    18    20    21    1
    19    21    22    1
    20    22    23   ar
    21    23    24   ar
    22    24    25   ar
    23    25    26   ar
    24    26    27   ar
    25    21    28    1
    26    28    29   ar
    27    29    30   ar
    28    30    31   ar
    29    31    32   ar
    30    32    33   ar
    31    12    13   ar
    32    13     8   ar
    33     7     1   ar
    34    27    22   ar
    35    33    28   ar
    36    14    15    1
@<TRIPOS>MOLECULE
*****
 33 36 0 0 0
SMALL
GASTEIGER

@<TRIPOS>ATOM
      1 C         141.5076  138.5436  162.9341 C.ar    1  UNL1       -0.0017
      2 C         141.2838  138.1463  161.5051 C.ar    1  UNL1        0.0293
      3 C         142.4539  137.9732  160.5827 C.ar    1  UNL1        0.1401
      4 F         142.2301  137.5759  159.1537 F       1  UNL1       -0.2042
      5 C         143.8479  138.1976  161.0892 C.ar    1  UNL1        0.0293
      6 C         144.0716  138.5949  162.5183 C.ar    1  UNL1       -0.0019
      7 C         142.9015  138.7680  163.4407 C.ar    1  UNL1       -0.0214
      8 C         138.3957  140.1761  164.7784 C.ar    1  UNL1        0.0644
      9 C         137.9972  139.0629  165.7014 C.ar    1  UNL1        0.0158
     10 C         138.7689  137.7766  165.7020 C.ar    1  UNL1        0.0013
     11 C         139.9390  137.6035  164.7796 C.ar    1  UNL1        0.0001
     12 C         140.3374  138.7167  163.8566 C.ar    1  UNL1        0.0010
     13 C         139.5658  140.0030  163.8560 C.ar    1  UNL1        0.0158
     14 N         137.6241  141.4624  164.7778 N.pl3   1  UNL1       -0.2187
     15 H         137.0060  141.6660  165.5166 H       1  UNL1        0.1734
     16 C         137.9640  143.4146  162.5254 C.3     1  UNL1        0.1996
     17 S         137.7940  142.4384  163.6516 S.O2    1  UNL1        0.0558
     18 O         138.6659  143.2926  164.5235 O.2     1  UNL1       -0.1544
     19 O         136.9222  141.5842  162.7797 O.2     1  UNL1       -0.1544
     20 C         143.1253  139.1653  164.8697 C.3     1  UNL1        0.0352
     21 C         142.8806  140.5808  165.3017 C.3     1  UNL1        0.0520
     22 C         142.3648  140.8654  166.6811 C.ar    1  UNL1        0.0011
     23 C         141.3386  139.9627  167.2992 C.ar    1  UNL1       -0.0008
     24 C         140.8228  140.2474  168.6786 C.ar    1  UNL1        0.0204
     25 C         141.3331  141.4348  169.4400 C.ar    1  UNL1        0.0989
     26 N         142.3593  142.3375  168.8219 N.ar    1  UNL1       -0.2426
     27 C         142.8751  142.0528  167.4424 C.ar    1  UNL1        0.0949
     28 C         143.1517  141.7116  164.3542 C.ar    1  UNL1        0.0011
     29 C         144.5580  142.0114  163.9271 C.ar    1  UNL1       -0.0008
     30 C         144.8292  143.1423  162.9795 C.ar    1  UNL1        0.0204
     31 C         143.6940  143.9733  162.4591 C.ar    1  UNL1        0.0989
     32 N         142.2876  143.6734  162.8863 N.ar    1  UNL1       -0.2426
     33 C         142.0165  142.5426  163.8338 C.ar    1  UNL1        0.0949
@<TRIPOS>BOND
     1    16    17    1
     2    17    18    2
     3    17    19    2
     4    17    14    1
     5    14     8    1
     6     8     9   ar
     7     9    10   ar
     8    10    11   ar
     9    11    12   ar
    10    12     1    1
    11     1     2   ar
    12     2     3   ar
    13     3     4    1
    14     3     5   ar
    15     5     6   ar
    16     6     7   ar
    17     7    20    1
    18    20    21    1
    19    21    22    1
    20    22    23   ar
    21    23    24   ar
    22    24    25   ar
    23    25    26   ar
    24    26    27   ar
    25    21    28    1
    26    28    29   ar
    27    29    30   ar
    28    30    31   ar
    29    31    32   ar
    30    32    33   ar
    31    12    13   ar
    32    13     8   ar
    33     7     1   ar
    34    27    22   ar
    35    33    28   ar
    36    14    15    1
@<TRIPOS>MOLECULE
*****
 33 36 0 0 0
SMALL
GASTEIGER

@<TRIPOS>ATOM
      1 C         141.4939  138.6444  162.9355 C.ar    1  UNL1       -0.0017
      2 C         141.2768  138.2429  161.5066 C.ar    1  UNL1        0.0293
      3 C         142.4508  138.0749  160.5881 C.ar    1  UNL1        0.1401
      4 F         142.2337  137.6734  159.1593 F       1  UNL1       -0.2042
      5 C         143.8418  138.3084  161.0986 C.ar    1  UNL1        0.0293
      6 C         144.0588  138.7099  162.5275 C.ar    1  UNL1       -0.0019
      7 C         142.8849  138.8779  163.4459 C.ar    1  UNL1       -0.0214
      8 C         138.3632  140.2600  164.7627 C.ar    1  UNL1        0.0644
      9 C         137.9720  139.1485  165.6908 C.ar    1  UNL1        0.0158
     10 C         138.7547  137.8690  165.7005 C.ar    1  UNL1        0.0013
     11 C         139.9286  137.7009  164.7821 C.ar    1  UNL1        0.0001
     12 C         140.3199  138.8124  163.8540 C.ar    1  UNL1        0.0010
     13 C         139.5371  140.0920  163.8443 C.ar    1  UNL1        0.0158
     14 N         137.5805  141.5396  164.7530 N.pl3   1  UNL1       -0.2187
     15 H         136.9365  141.7281  165.4734 H       1  UNL1        0.1734
     16 C         137.9775  143.5241  162.5385 C.3     1  UNL1        0.1996
     17 S         137.7790  142.5318  163.6458 S.O2    1  UNL1        0.0558
     18 O         136.9929  141.6537  162.7179 O.2     1  UNL1       -0.1544
     19 O         138.5651  143.4099  164.5737 O.2     1  UNL1       -0.1544
     20 C         143.1019  139.2794  164.8748 C.3     1  UNL1        0.0352
     21 C         142.8313  140.6901  165.3069 C.3     1  UNL1        0.0520
     22 C         143.0433  141.8224  164.3462 C.ar    1  UNL1        0.0011
     23 C         141.8696  142.6108  163.8453 C.ar    1  UNL1       -0.0008
     24 C         142.0817  143.7431  162.8847 C.ar    1  UNL1        0.0204
     25 C         143.4675  144.0871  162.4249 C.ar    1  UNL1        0.0989
     26 N         144.6412  143.2987  162.9258 N.ar    1  UNL1       -0.2426
     27 C         144.4290  142.1664  163.8865 C.ar    1  UNL1        0.0949
     28 C         142.3486  140.9685  166.6996 C.ar    1  UNL1        0.0011
     29 C         141.3320  140.0671  167.3352 C.ar    1  UNL1       -0.0008
     30 C         140.8493  140.3455  168.7279 C.ar    1  UNL1        0.0204
     31 C         141.3832  141.5252  169.4849 C.ar    1  UNL1        0.0989
     32 N         142.3999  142.4266  168.8493 N.ar    1  UNL1       -0.2426
     33 C         142.8825  142.1482  167.4566 C.ar    1  UNL1        0.0949
@<TRIPOS>BOND
     1    16    17    1
     2    17    18    2
     3    17    19    2
     4    17    14    1
     5    14     8    1
     6     8     9   ar
     7     9    10   ar
     8    10    11   ar
     9    11    12   ar
    10    12     1    1
    11     1     2   ar
    12     2     3   ar
    13     3     4    1
    14     3     5   ar
    15     5     6   ar
    16     6     7   ar
    17     7    20    1
    18    20    21    1
    19    21    22    1
    20    22    23   ar
    21    23    24   ar
    22    24    25   ar
    23    25    26   ar
    24    26    27   ar
    25    21    28    1
    26    28    29   ar
    27    29    30   ar
    28    30    31   ar
    29    31    32   ar
    30    32    33   ar
    31    12    13   ar
    32    13     8   ar
    33     7     1   ar
    34    27    22   ar
    35    33    28   ar
    36    14    15    1
@<TRIPOS>MOLECULE
*****
 33 36 0 0 0
SMALL
GASTEIGER

@<TRIPOS>ATOM
      1 C         140.2472  139.5088  166.2741 C.ar    1  UNL1       -0.0017
      2 C         139.4758  140.0417  167.4449 C.ar    1  UNL1        0.0293
      3 C         140.1920  140.4079  168.7110 C.ar    1  UNL1        0.1401
      4 F         139.4206  140.9408  169.8818 F       1  UNL1       -0.2042
      5 C         141.6797  140.2410  168.8063 C.ar    1  UNL1        0.0293
      6 C         142.4511  139.7080  167.6354 C.ar    1  UNL1       -0.0019
      7 C         141.7348  139.3419  166.3693 C.ar    1  UNL1       -0.0214
      8 C         138.1245  139.8376  162.9370 C.ar    1  UNL1        0.0644
      9 C         138.0985  138.4105  162.4758 C.ar    1  UNL1        0.0158
     10 C         138.7888  137.3495  163.2807 C.ar    1  UNL1        0.0013
     11 C         139.5050  137.7156  164.5467 C.ar    1  UNL1        0.0001
     12 C         139.5309  139.1426  165.0079 C.ar    1  UNL1        0.0010
     13 C         138.8407  140.2036  164.2031 C.ar    1  UNL1        0.0158
     14 N         137.4342  140.8986  162.1321 N.pl3   1  UNL1       -0.2187
     15 H         136.4948  140.7792  161.8630 H       1  UNL1        0.1734
     16 C         138.9164  143.3845  161.3424 C.3     1  UNL1        0.1996
     17 S         138.1753  142.1415  161.7373 S.O2    1  UNL1        0.0558
     18 O         137.3270  142.9459  162.6771 O.2     1  UNL1       -0.1544
     19 O         139.0236  141.3371  160.7974 O.2     1  UNL1       -0.1544
     20 C         142.5062  138.8089  165.1984 C.3     1  UNL1        0.0352
     21 C         142.7785  139.6905  164.0157 C.3     1  UNL1        0.0520
     22 C         142.7956  139.1074  162.6338 C.ar    1  UNL1        0.0011
     23 C         141.5600  139.1541  161.7847 C.ar    1  UNL1       -0.0008
     24 C         141.5771  138.5710  160.4028 C.ar    1  UNL1        0.0204
     25 C         142.8299  137.9411  159.8700 C.ar    1  UNL1        0.0989
     26 N         144.0655  137.8944  160.7191 N.ar    1  UNL1       -0.2426
     27 C         144.0483  138.4775  162.1011 C.ar    1  UNL1        0.0949
     28 C         143.0336  141.1552  164.2149 C.ar    1  UNL1        0.0011
     29 C         144.3724  141.6237  164.7026 C.ar    1  UNL1       -0.0008
     30 C         144.6275  143.0885  164.9018 C.ar    1  UNL1        0.0204
     31 C         143.5437  144.0845  164.6134 C.ar    1  UNL1        0.0989
     32 N         142.2048  143.6159  164.1257 N.ar    1  UNL1       -0.2426
     33 C         141.9498  142.1512  163.9265 C.ar    1  UNL1        0.0949
@<TRIPOS>BOND
     1    16    17    1
     2    17    18    2
     3    17    19    2
     4    17    14    1
     5    14     8    1
     6     8     9   ar
     7     9    10   ar
     8    10    11   ar
     9    11    12   ar
    10    12     1    1
    11     1     2   ar
    12     2     3   ar
    13     3     4    1
    14     3     5   ar
    15     5     6   ar
    16     6     7   ar
    17     7    20    1
    18    20    21    1
    19    21    22    1
    20    22    23   ar
    21    23    24   ar
    22    24    25   ar
    23    25    26   ar
    24    26    27   ar
    25    21    28    1
    26    28    29   ar
    27    29    30   ar
    28    30    31   ar
    29    31    32   ar
    30    32    33   ar
    31    12    13   ar
    32    13     8   ar
    33     7     1   ar
    34    27    22   ar
    35    33    28   ar
    36    14    15    1
