@<TRIPOS>MOLECULE
*****
 26 29 0 0 0
SMALL
GASTEIGER

@<TRIPOS>ATOM
      1 C         139.5639  139.9934  166.9962 C.ar    1  UNL1        0.0873
      2 C         140.7232  140.9291  167.1703 C.ar    1  UNL1        0.0400
      3 C         141.0882  141.4246  168.5383 C.ar    1  UNL1        0.1032
      4 N         142.2475  142.3604  168.7124 N.ar    1  UNL1       -0.2405
      5 C         142.6124  142.8558  170.0804 C.ar    1  UNL1        0.1195
      6 C         141.8181  142.4155  171.2742 C.ar    1  UNL1        0.1196
      7 N         140.6588  141.4798  171.1000 N.ar    1  UNL1       -0.2379
      8 C         140.2938  140.9843  169.7321 C.ar    1  UNL1        0.1302
      9 C         139.1345  140.0485  169.5579 C.ar    1  UNL1        0.1478
     10 N         138.7695  139.5531  168.1900 N.ar    1  UNL1       -0.2292
     11 C         137.7781  139.8163  162.0302 C.3     1  UNL1        0.1538
     12 N         138.3780  139.4165  163.3456 N.ar    1  UNL1       -0.2473
     13 C         138.5650  140.3087  164.5369 C.ar    1  UNL1        0.0982
     14 C         139.1989  139.4979  165.6282 C.ar    1  UNL1        0.0573
     15 C         139.4037  138.1047  165.1113 C.ar    1  UNL1        0.1231
     16 N         138.8964  138.0544  163.7006 N.ar    1  UNL1       -0.1675
     17 N         138.3401  139.6082  170.7517 N.pl3   1  UNL1       -0.3148
     18 H         138.7372  139.6542  171.6514 H       1  UNL1        0.1483
     19 C         136.9408  139.0980  170.5747 C.3     1  UNL1        0.1195
     20 C         136.3291  138.2093  171.6169 C.3     1  UNL1        0.1504
     21 C         135.0583  138.6194  172.3002 C.3     1  UNL1        0.1003
     22 N         134.4466  137.7307  173.3423 N.3     1  UNL1       -0.2933
     23 C         135.1057  136.4320  173.7012 C.3     1  UNL1        0.1011
     24 C         136.3766  136.0219  173.0180 C.3     1  UNL1        0.1592
     25 O         136.9883  136.9105  171.9758 O.3     1  UNL1       -0.3516
     26 H         133.5055  137.5043  173.0207 H       1  UNL1        0.1234
@<TRIPOS>BOND
     1    11    12    1
     2    12    13   ar
     3    13    14   ar
     4    14     1    1
     5     1     2   ar
     6     2     3   ar
     7     3     4   ar
     8     4     5   ar
     9     5     6   ar
    10     6     7   ar
    11     7     8   ar
    12     8     9   ar
    13     9    17    1
    14    17    19    1
    15    20    19    1
    16    20    21    1
    17    21    22    1
    18    22    23    1
    19    23    24    1
    20    24    25    1
    21     9    10   ar
    22    14    15   ar
    23    15    16   ar
    24    16    12   ar
    25    10     1   ar
    26     8     3   ar
    27    25    20    1
    28    17    18    1
    29    22    26    1
@<TRIPOS>MOLECULE
*****
 26 29 0 0 0
SMALL
GASTEIGER

@<TRIPOS>ATOM
      1 C         142.3844  139.8167  166.9204 C.ar    1  UNL1        0.0873
      2 C         141.5358  141.0233  167.1923 C.ar    1  UNL1        0.0400
      3 C         141.2183  141.4139  168.6054 C.ar    1  UNL1        0.1032
      4 N         140.3696  142.6205  168.8773 N.ar    1  UNL1       -0.2405
      5 C         140.0522  143.0111  170.2903 C.ar    1  UNL1        0.1195
      6 C         140.5833  142.1951  171.4314 C.ar    1  UNL1        0.1196
      7 N         141.4319  140.9885  171.1594 N.ar    1  UNL1       -0.2379
      8 C         141.7494  140.5980  169.7464 C.ar    1  UNL1        0.1302
      9 C         142.5981  139.3913  169.4745 C.ar    1  UNL1        0.1478
     10 N         142.9156  139.0007  168.0615 N.ar    1  UNL1       -0.2292
     11 C         144.3133  139.8797  162.0055 C.3     1  UNL1        0.1538
     12 N         143.5886  139.4551  163.2482 N.ar    1  UNL1       -0.2473
     13 C         143.5326  140.2160  164.5398 C.ar    1  UNL1        0.0982
     14 C         142.7019  139.4261  165.5073 C.ar    1  UNL1        0.0573
     15 C         142.2446  138.1771  164.8139 C.ar    1  UNL1        0.1231
     16 N         142.7926  138.1950  163.4177 N.ar    1  UNL1       -0.1675
     17 N         143.1292  138.5753  170.6155 N.pl3   1  UNL1       -0.3148
     18 H         143.1795  138.9654  171.5181 H       1  UNL1        0.1483
     19 C         143.5837  137.1652  170.3815 C.3     1  UNL1        0.1195
     20 C         144.5338  136.5141  171.3424 C.3     1  UNL1        0.1504
     21 C         144.1797  135.2001  171.9731 C.3     1  UNL1        0.1003
     22 N         145.1298  134.5490  172.9340 N.3     1  UNL1       -0.2933
     23 C         146.4342  135.2120  173.2642 C.3     1  UNL1        0.1011
     24 C         146.7884  136.5262  172.6335 C.3     1  UNL1        0.1592
     25 O         145.8382  137.1772  171.6726 O.3     1  UNL1       -0.3516
     26 H         145.3550  133.6315  172.5493 H       1  UNL1        0.1234
@<TRIPOS>BOND
     1    11    12    1
     2    12    13   ar
     3    13    14   ar
     4    14     1    1
     5     1     2   ar
     6     2     3   ar
     7     3     4   ar
     8     4     5   ar
     9     5     6   ar
    10     6     7   ar
    11     7     8   ar
    12     8     9   ar
    13     9    17    1
    14    17    19    1
    15    20    19    1
    16    20    21    1
    17    21    22    1
    18    22    23    1
    19    23    24    1
    20    24    25    1
    21     9    10   ar
    22    14    15   ar
    23    15    16   ar
    24    16    12   ar
    25    10     1   ar
    26     8     3   ar
    27    25    20    1
    28    17    18    1
    29    22    26    1
@<TRIPOS>MOLECULE
*****
 26 29 0 0 0
SMALL
GASTEIGER

@<TRIPOS>ATOM
      1 C         139.2495  142.4210  165.2446 C.ar    1  UNL1        0.0873
      2 C         140.1942  142.7935  166.3485 C.ar    1  UNL1        0.0400
      3 C         140.4465  141.8355  167.4749 C.ar    1  UNL1        0.1032
      4 N         141.3912  142.2080  168.5789 N.ar    1  UNL1       -0.2405
      5 C         141.6435  141.2501  169.7052 C.ar    1  UNL1        0.1195
      6 C         140.9510  139.9196  169.7276 C.ar    1  UNL1        0.1196
      7 N         140.0063  139.5472  168.6237 N.ar    1  UNL1       -0.2379
      8 C         139.7541  140.5051  167.4973 C.ar    1  UNL1        0.1302
      9 C         138.8093  140.1326  166.3933 C.ar    1  UNL1        0.1478
     10 N         138.5571  141.0905  165.2669 N.ar    1  UNL1       -0.2292
     11 C         139.8328  146.3582  161.7748 C.3     1  UNL1        0.1538
     12 N         139.2654  145.1887  162.5233 N.ar    1  UNL1       -0.2473
     13 C         139.9109  144.4850  163.6801 C.ar    1  UNL1        0.0982
     14 C         138.9972  143.3789  164.1181 C.ar    1  UNL1        0.0573
     15 C         137.7871  143.3989  163.2321 C.ar    1  UNL1        0.1231
     16 N         137.9528  144.5174  162.2464 N.ar    1  UNL1       -0.1675
     17 N         138.1169  138.8022  166.4157 N.pl3   1  UNL1       -0.3148
     18 H         137.2385  138.7117  166.8509 H       1  UNL1        0.1483
     19 C         138.7628  137.6097  165.7749 C.3     1  UNL1        0.1195
     20 C         139.3273  137.7165  164.3893 C.3     1  UNL1        0.1504
     21 C         140.6914  137.1688  164.0909 C.3     1  UNL1        0.1003
     22 N         141.2559  137.2757  162.7053 N.3     1  UNL1       -0.2933
     23 C         140.4563  137.9303  161.6181 C.3     1  UNL1        0.1011
     24 C         139.0921  138.4781  161.9165 C.3     1  UNL1        0.1592
     25 O         138.5276  138.3712  163.3021 O.3     1  UNL1       -0.3516
     26 H         141.4534  136.3248  162.3937 H       1  UNL1        0.1234
@<TRIPOS>BOND
     1    11    12    1
     2    12    13   ar
     3    13    14   ar
     4    14     1    1
     5     1     2   ar
     6     2     3   ar
     7     3     4   ar
     8     4     5   ar
     9     5     6   ar
    10     6     7   ar
    11     7     8   ar
    12     8     9   ar
    13     9    17    1
    14    17    19    1
    15    20    19    1
    16    20    21    1
    17    21    22    1
    18    22    23    1
    19    23    24    1
    20    24    25    1
    21     9    10   ar
    22    14    15   ar
    23    15    16   ar
    24    16    12   ar
    25    10     1   ar
    26     8     3   ar
    27    25    20    1
    28    17    18    1
    29    22    26    1
@<TRIPOS>MOLECULE
*****
 26 29 0 0 0
SMALL
GASTEIGER

@<TRIPOS>ATOM
      1 C         139.3252  140.5264  165.8828 C.ar    1  UNL1        0.0873
      2 C         139.2065  139.3430  164.9688 C.ar    1  UNL1        0.0400
      3 C         138.5973  139.5048  163.6076 C.ar    1  UNL1        0.1032
      4 N         138.4785  138.3214  162.6936 N.ar    1  UNL1       -0.2405
      5 C         137.8694  138.4832  161.3325 C.ar    1  UNL1        0.1195
      6 C         137.3789  139.8284  160.8854 C.ar    1  UNL1        0.1196
      7 N         137.4977  141.0118  161.7994 N.ar    1  UNL1       -0.2379
      8 C         138.1068  140.8500  163.1605 C.ar    1  UNL1        0.1302
      9 C         138.2256  142.0334  164.0746 C.ar    1  UNL1        0.1478
     10 N         138.8348  141.8716  165.4357 N.ar    1  UNL1       -0.2292
     11 C         142.8166  140.4301  169.8428 C.3     1  UNL1        0.1538
     12 N         141.5393  140.3204  169.0642 N.ar    1  UNL1       -0.2473
     13 C         141.3723  140.6007  167.6000 C.ar    1  UNL1        0.0982
     14 C         139.9344  140.3647  167.2440 C.ar    1  UNL1        0.0573
     15 C         139.2127  139.9385  168.4880 C.ar    1  UNL1        0.1231
     16 N         140.2045  139.9111  169.6129 N.ar    1  UNL1       -0.1675
     17 N         137.7351  143.3786  163.6275 N.pl3   1  UNL1       -0.3148
     18 H         136.7777  143.5179  163.4452 H       1  UNL1        0.1483
     19 C         138.7034  144.5116  163.4580 C.3     1  UNL1        0.1195
     20 C         139.5848  144.5700  162.2457 C.3     1  UNL1        0.1504
     21 C         140.9436  145.1988  162.3359 C.3     1  UNL1        0.1003
     22 N         141.8250  145.2572  161.1236 N.3     1  UNL1       -0.2933
     23 C         141.3475  144.6868  159.8210 C.3     1  UNL1        0.1011
     24 C         139.9886  144.0580  159.7307 C.3     1  UNL1        0.1592
     25 O         139.1073  143.9996  160.9431 O.3     1  UNL1       -0.3516
     26 H         142.6865  144.7659  161.3619 H       1  UNL1        0.1234
@<TRIPOS>BOND
     1    11    12    1
     2    12    13   ar
     3    13    14   ar
     4    14     1    1
     5     1     2   ar
     6     2     3   ar
     7     3     4   ar
     8     4     5   ar
     9     5     6   ar
    10     6     7   ar
    11     7     8   ar
    12     8     9   ar
    13     9    17    1
    14    17    19    1
    15    20    19    1
    16    20    21    1
    17    21    22    1
    18    22    23    1
    19    23    24    1
    20    24    25    1
    21     9    10   ar
    22    14    15   ar
    23    15    16   ar
    24    16    12   ar
    25    10     1   ar
    26     8     3   ar
    27    25    20    1
    28    17    18    1
    29    22    26    1
@<TRIPOS>MOLECULE
*****
 26 29 0 0 0
SMALL
GASTEIGER

@<TRIPOS>ATOM
      1 C         139.5183  140.4696  166.3150 C.ar    1  UNL1        0.0873
      2 C         139.2719  139.3029  165.4051 C.ar    1  UNL1        0.0400
      3 C         138.7341  139.5299  164.0233 C.ar    1  UNL1        0.1032
      4 N         138.4876  138.3631  163.1134 N.ar    1  UNL1       -0.2405
      5 C         137.9500  138.5902  161.7316 C.ar    1  UNL1        0.1195
      6 C         137.6587  139.9839  161.2598 C.ar    1  UNL1        0.1196
      7 N         137.9052  141.1506  162.1696 N.ar    1  UNL1       -0.2379
      8 C         138.4429  140.9236  163.5514 C.ar    1  UNL1        0.1302
      9 C         138.6894  142.0904  164.4614 C.ar    1  UNL1        0.1478
     10 N         139.2271  141.8634  165.8431 N.ar    1  UNL1       -0.2292
     11 C         142.8396  139.7174  170.3504 C.3     1  UNL1        0.1538
     12 N         141.5827  139.8969  169.5517 N.ar    1  UNL1       -0.2473
     13 C         141.5034  140.1149  168.0697 C.ar    1  UNL1        0.0982
     14 C         140.0561  140.2427  167.6969 C.ar    1  UNL1        0.0573
     15 C         139.2409  140.1036  168.9483 C.ar    1  UNL1        0.1231
     16 N         140.1844  139.8899  170.0947 N.ar    1  UNL1       -0.1675
     17 N         138.3982  143.4841  163.9895 N.pl3   1  UNL1       -0.3148
     18 H         137.5938  143.6635  163.4510 H       1  UNL1        0.1483
     19 C         139.3326  144.6046  164.3381 C.3     1  UNL1        0.1195
     20 C         140.7553  144.5697  163.8641 C.3     1  UNL1        0.1504
     21 C         141.1186  145.1671  162.5371 C.3     1  UNL1        0.1003
     22 N         142.5413  145.1322  162.0631 N.3     1  UNL1       -0.2933
     23 C         143.6008  144.4998  162.9162 C.3     1  UNL1        0.1011
     24 C         143.2375  143.9024  164.2433 C.3     1  UNL1        0.1592
     25 O         141.8148  143.9373  164.7173 O.3     1  UNL1       -0.3516
     26 H         142.8248  146.1001  161.9108 H       1  UNL1        0.1234
@<TRIPOS>BOND
     1    11    12    1
     2    12    13   ar
     3    13    14   ar
     4    14     1    1
     5     1     2   ar
     6     2     3   ar
     7     3     4   ar
     8     4     5   ar
     9     5     6   ar
    10     6     7   ar
    11     7     8   ar
    12     8     9   ar
    13     9    17    1
    14    17    19    1
    15    20    19    1
    16    20    21    1
    17    21    22    1
    18    22    23    1
    19    23    24    1
    20    24    25    1
    21     9    10   ar
    22    14    15   ar
    23    15    16   ar
    24    16    12   ar
    25    10     1   ar
    26     8     3   ar
    27    25    20    1
    28    17    18    1
    29    22    26    1
@<TRIPOS>MOLECULE
*****
 26 29 0 0 0
SMALL
GASTEIGER

@<TRIPOS>ATOM
      1 C         141.6691  139.9884  165.1594 C.ar    1  UNL1        0.0873
      2 C         141.6350  139.6033  166.6087 C.ar    1  UNL1        0.0400
      3 C         142.2950  140.4782  167.6330 C.ar    1  UNL1        0.1032
      4 N         142.2608  140.0931  169.0822 N.ar    1  UNL1       -0.2405
      5 C         142.9208  140.9679  170.1064 C.ar    1  UNL1        0.1195
      6 C         143.6149  142.2279  169.6814 C.ar    1  UNL1        0.1196
      7 N         143.6491  142.6130  168.2321 N.ar    1  UNL1       -0.2379
      8 C         142.9891  141.7381  167.2079 C.ar    1  UNL1        0.1302
      9 C         143.0233  142.1232  165.7585 C.ar    1  UNL1        0.1478
     10 N         142.3633  141.2484  164.7343 N.ar    1  UNL1       -0.2292
     11 C         138.1359  138.0131  161.7689 C.3     1  UNL1        0.1538
     12 N         139.3851  138.2057  162.5766 N.ar    1  UNL1       -0.2473
     13 C         139.6368  139.3085  163.5618 C.ar    1  UNL1        0.0982
     14 C         141.0091  139.1136  164.1351 C.ar    1  UNL1        0.0573
     15 C         141.6056  137.8903  163.5043 C.ar    1  UNL1        0.1231
     16 N         140.6019  137.3292  162.5412 N.ar    1  UNL1       -0.1675
     17 N         143.7174  143.3832  165.3334 N.pl3   1  UNL1       -0.3148
     18 H         144.0400  144.0202  166.0112 H       1  UNL1        0.1483
     19 C         143.9202  143.6726  163.8756 C.3     1  UNL1        0.1195
     20 C         142.8144  144.2916  163.0730 C.3     1  UNL1        0.1504
     21 C         141.9670  145.3738  163.6735 C.3     1  UNL1        0.1003
     22 N         140.8612  145.9928  162.8709 N.3     1  UNL1       -0.2933
     23 C         140.6029  145.5295  161.4678 C.3     1  UNL1        0.1011
     24 C         141.4504  144.4473  160.8673 C.3     1  UNL1        0.1592
     25 O         142.5561  143.8283  161.6699 O.3     1  UNL1       -0.3516
     26 H         141.0586  146.9922  162.8194 H       1  UNL1        0.1234
@<TRIPOS>BOND
     1    11    12    1
     2    12    13   ar
     3    13    14   ar
     4    14     1    1
     5     1     2   ar
     6     2     3   ar
     7     3     4   ar
     8     4     5   ar
     9     5     6   ar
    10     6     7   ar
    11     7     8   ar
    12     8     9   ar
    13     9    17    1
    14    17    19    1
    15    20    19    1
    16    20    21    1
    17    21    22    1
    18    22    23    1
    19    23    24    1
    20    24    25    1
    21     9    10   ar
    22    14    15   ar
    23    15    16   ar
    24    16    12   ar
    25    10     1   ar
    26     8     3   ar
    27    25    20    1
    28    17    18    1
    29    22    26    1
@<TRIPOS>MOLECULE
*****
 26 29 0 0 0
SMALL
GASTEIGER

@<TRIPOS>ATOM
      1 C         139.3467  142.4670  165.3397 C.ar    1  UNL1        0.0873
      2 C         140.2482  142.8987  166.4581 C.ar    1  UNL1        0.0400
      3 C         140.5482  141.9563  167.5860 C.ar    1  UNL1        0.1032
      4 N         141.4497  142.3880  168.7044 N.ar    1  UNL1       -0.2405
      5 C         141.7495  141.4457  169.8322 C.ar    1  UNL1        0.1195
      6 C         141.1479  140.0717  169.8416 C.ar    1  UNL1        0.1196
      7 N         140.2464  139.6400  168.7233 N.ar    1  UNL1       -0.2379
      8 C         139.9465  140.5823  167.5954 C.ar    1  UNL1        0.1302
      9 C         139.0449  140.1507  166.4769 C.ar    1  UNL1        0.1478
     10 N         138.7451  141.0930  165.3491 N.ar    1  UNL1       -0.2292
     11 C         139.8958  146.1222  161.5689 C.3     1  UNL1        0.1538
     12 N         139.2993  145.0895  162.4785 N.ar    1  UNL1       -0.2473
     13 C         140.0257  144.3354  163.5527 C.ar    1  UNL1        0.0982
     14 C         139.0468  143.4093  164.2118 C.ar    1  UNL1        0.0573
     15 C         137.7155  143.5910  163.5449 C.ar    1  UNL1        0.1231
     16 N         137.8715  144.6294  162.4737 N.ar    1  UNL1       -0.1675
     17 N         138.4433  138.7766  166.4864 N.pl3   1  UNL1       -0.3148
     18 H         137.8726  138.4943  167.2373 H       1  UNL1        0.1483
     19 C         138.7111  137.8328  165.3518 C.3     1  UNL1        0.1195
     20 C         139.9848  137.9451  164.5674 C.3     1  UNL1        0.1504
     21 C         139.9592  137.8166  163.0732 C.3     1  UNL1        0.1003
     22 N         141.2329  137.9290  162.2889 N.3     1  UNL1       -0.2933
     23 C         142.5321  138.1698  162.9988 C.3     1  UNL1        0.1011
     24 C         142.5577  138.2984  164.4931 C.3     1  UNL1        0.1592
     25 O         141.2840  138.1861  165.2774 O.3     1  UNL1       -0.3516
     26 H         141.1080  138.7005  161.6335 H       1  UNL1        0.1234
@<TRIPOS>BOND
     1    11    12    1
     2    12    13   ar
     3    13    14   ar
     4    14     1    1
     5     1     2   ar
     6     2     3   ar
     7     3     4   ar
     8     4     5   ar
     9     5     6   ar
    10     6     7   ar
    11     7     8   ar
    12     8     9   ar
    13     9    17    1
    14    17    19    1
    15    20    19    1
    16    20    21    1
    17    21    22    1
    18    22    23    1
    19    23    24    1
    20    24    25    1
    21     9    10   ar
    22    14    15   ar
    23    15    16   ar
    24    16    12   ar
    25    10     1   ar
    26     8     3   ar
    27    25    20    1
    28    17    18    1
    29    22    26    1
@<TRIPOS>MOLECULE
*****
 26 29 0 0 0
SMALL
GASTEIGER

@<TRIPOS>ATOM
      1 C         141.0305  142.1172  166.2794 C.ar    1  UNL1        0.0873
      2 C         142.2396  141.6535  165.5224 C.ar    1  UNL1        0.0400
      3 C         142.6277  142.3307  164.2414 C.ar    1  UNL1        0.1032
      4 N         143.8368  141.8671  163.4844 N.ar    1  UNL1       -0.2405
      5 C         144.2249  142.5442  162.2035 C.ar    1  UNL1        0.1195
      6 C         143.4038  143.6850  161.6796 C.ar    1  UNL1        0.1196
      7 N         142.1948  144.1487  162.4366 N.ar    1  UNL1       -0.2379
      8 C         141.8067  143.4715  163.7175 C.ar    1  UNL1        0.1302
      9 C         140.5976  143.9352  164.4746 C.ar    1  UNL1        0.1478
     10 N         140.2095  143.2580  165.7555 N.ar    1  UNL1       -0.2292
     11 C         140.7260  140.8447  171.3950 C.3     1  UNL1        0.1538
     12 N         140.5024  140.8551  169.9118 N.ar    1  UNL1       -0.2473
     13 C         141.1542  141.7817  168.9284 C.ar    1  UNL1        0.0982
     14 C         140.6424  141.4400  167.5604 C.ar    1  UNL1        0.0573
     15 C         139.6744  140.3025  167.6983 C.ar    1  UNL1        0.1231
     16 N         139.5879  139.9410  169.1515 N.ar    1  UNL1       -0.1675
     17 N         139.7765  145.0760  163.9507 N.pl3   1  UNL1       -0.3148
     18 H         140.0844  146.0026  164.0766 H       1  UNL1        0.1483
     19 C         138.4865  144.8050  163.2349 C.3     1  UNL1        0.1195
     20 C         138.1990  143.4331  162.7007 C.3     1  UNL1        0.1504
     21 C         137.3040  142.5031  163.4649 C.3     1  UNL1        0.1003
     22 N         137.0165  141.1313  162.9307 N.3     1  UNL1       -0.2933
     23 C         137.6239  140.6894  161.6323 C.3     1  UNL1        0.1011
     24 C         138.5190  141.6195  160.8681 C.3     1  UNL1        0.1592
     25 O         138.8065  142.9914  161.4023 O.3     1  UNL1       -0.3516
     26 H         136.0047  141.0644  162.8202 H       1  UNL1        0.1234
@<TRIPOS>BOND
     1    11    12    1
     2    12    13   ar
     3    13    14   ar
     4    14     1    1
     5     1     2   ar
     6     2     3   ar
     7     3     4   ar
     8     4     5   ar
     9     5     6   ar
    10     6     7   ar
    11     7     8   ar
    12     8     9   ar
    13     9    17    1
    14    17    19    1
    15    20    19    1
    16    20    21    1
    17    21    22    1
    18    22    23    1
    19    23    24    1
    20    24    25    1
    21     9    10   ar
    22    14    15   ar
    23    15    16   ar
    24    16    12   ar
    25    10     1   ar
    26     8     3   ar
    27    25    20    1
    28    17    18    1
    29    22    26    1
@<TRIPOS>MOLECULE
*****
 26 29 0 0 0
SMALL
GASTEIGER

@<TRIPOS>ATOM
      1 C         139.7015  141.7039  166.2351 C.ar    1  UNL1        0.0873
      2 C         140.4515  142.8941  165.7147 C.ar    1  UNL1        0.0400
      3 C         140.1491  143.4321  164.3475 C.ar    1  UNL1        0.1032
      4 N         140.8991  144.6223  163.8271 N.ar    1  UNL1       -0.2405
      5 C         140.5968  145.1602  162.4599 C.ar    1  UNL1        0.1195
      6 C         139.5444  144.5079  161.6131 C.ar    1  UNL1        0.1196
      7 N         138.7944  143.3177  162.1335 N.ar    1  UNL1       -0.2379
      8 C         139.0968  142.7798  163.5007 C.ar    1  UNL1        0.1302
      9 C         138.3467  141.5895  164.0212 C.ar    1  UNL1        0.1478
     10 N         138.6491  141.0516  165.3884 N.ar    1  UNL1       -0.2292
     11 C         141.7339  141.1487  171.0768 C.3     1  UNL1        0.1538
     12 N         140.9381  140.9108  169.8278 N.ar    1  UNL1       -0.2473
     13 C         140.9403  141.7763  168.6026 C.ar    1  UNL1        0.0982
     14 C         140.0038  141.1660  167.6024 C.ar    1  UNL1        0.0573
     15 C         139.4228  139.9234  168.2093 C.ar    1  UNL1        0.1231
     16 N         140.0002  139.7657  169.5847 N.ar    1  UNL1       -0.1675
     17 N         137.2944  140.9372  163.1744 N.pl3   1  UNL1       -0.3148
     18 H         136.3490  141.1898  163.2828 H       1  UNL1        0.1483
     19 C         137.6823  139.9001  162.1626 C.3     1  UNL1        0.1195
     20 C         139.0213  139.2298  162.2513 C.3     1  UNL1        0.1504
     21 C         139.1351  137.8572  162.8455 C.3     1  UNL1        0.1003
     22 N         140.4740  137.1869  162.9341 N.3     1  UNL1       -0.2933
     23 C         141.6992  137.8892  162.4285 C.3     1  UNL1        0.1011
     24 C         141.5855  139.2618  161.8342 C.3     1  UNL1        0.1592
     25 O         140.2465  139.9321  161.7456 O.3     1  UNL1       -0.3516
     26 H         140.4004  136.3123  162.4145 H       1  UNL1        0.1234
@<TRIPOS>BOND
     1    11    12    1
     2    12    13   ar
     3    13    14   ar
     4    14     1    1
     5     1     2   ar
     6     2     3   ar
     7     3     4   ar
     8     4     5   ar
     9     5     6   ar
    10     6     7   ar
    11     7     8   ar
    12     8     9   ar
    13     9    17    1
    14    17    19    1
    15    20    19    1
    16    20    21    1
    17    21    22    1
    18    22    23    1
    19    23    24    1
    20    24    25    1
    21     9    10   ar
    22    14    15   ar
    23    15    16   ar
    24    16    12   ar
    25    10     1   ar
    26     8     3   ar
    27    25    20    1
    28    17    18    1
    29    22    26    1
