@<TRIPOS>MOLECULE
*****
 26 28 0 0 0
SMALL
GASTEIGER

@<TRIPOS>ATOM
      1 C         142.5029  140.2734  164.3733 C.ar    1  UNL1        0.1519
      2 C         143.6475  139.3468  164.6584 C.ar    1  UNL1        0.0382
      3 C         143.7780  138.7096  166.0100 C.ar    1  UNL1        0.0032
      4 C         142.7638  138.9991  167.0767 C.ar    1  UNL1        0.0014
      5 C         141.6193  139.9257  166.7916 C.ar    1  UNL1        0.0170
      6 C         141.4888  140.5629  165.4399 C.ar    1  UNL1        0.0823
      7 C         140.6051  140.2152  167.8583 C.2     1  UNL1        0.0125
      8 C         140.9158  141.2080  168.9390 C.2     1  UNL1        0.0873
      9 S         142.1910  141.9847  169.0826 S.3     1  UNL1       -0.0254
     10 C         142.0692  142.8551  170.2982 C.2     1  UNL1        0.2832
     11 O         143.1144  143.7986  170.8153 O.2     1  UNL1       -0.2622
     12 N         140.7188  142.6162  170.9059 N.am    1  UNL1       -0.2425
     13 C         140.0060  141.5983  170.0658 C.2     1  UNL1        0.2583
     14 O         138.6256  141.0644  170.3099 O.2     1  UNL1       -0.2692
     15 H         140.3628  143.0512  171.7142 H       1  UNL1        0.1587
     16 N         140.3442  141.4895  165.1549 N.pl3   1  UNL1       -0.3038
     17 C         140.4009  142.9156  165.6165 C.3     1  UNL1        0.0910
     18 C         139.2562  143.8423  165.3315 C.3     1  UNL1        0.0228
     19 C         138.0550  143.3428  164.5849 C.3     1  UNL1        0.0190
     20 C         137.9983  141.9167  164.1233 C.3     1  UNL1        0.0709
     21 N         136.7970  141.4172  163.3766 N.3     1  UNL1       -0.3208
     22 C         139.1429  140.9901  164.4083 C.3     1  UNL1        0.1062
     23 H         136.1221  142.1748  163.2728 H       1  UNL1        0.1189
     24 H         136.3696  140.6496  163.8948 H       1  UNL1        0.1189
     25 C         143.0073  142.2434  162.7564 C.3     1  UNL1        0.2525
     26 O         142.3725  140.9105  163.0217 O.3     1  UNL1       -0.4702
@<TRIPOS>BOND
     1    25    26    1
     2    26     1    1
     3     1     2   ar
     4     2     3   ar
     5     3     4   ar
     6     4     5   ar
     7     5     7    1
     8     7     8    2
     9     8     9    1
    10     9    10    1
    11    10    11    2
    12    10    12   am
    13    12    13   am
    14    13    14    2
    15     5     6   ar
    16     6    16    1
    17    16    17    1
    18    17    18    1
    19    18    19    1
    20    19    20    1
    21    20    21    1
    22    20    22    1
    23     6     1   ar
    24    22    16    1
    25    13     8    1
    26    12    15    1
    27    21    23    1
    28    21    24    1
@<TRIPOS>MOLECULE
*****
 26 28 0 0 0
SMALL
GASTEIGER

@<TRIPOS>ATOM
      1 C         141.9835  140.0197  164.3637 C.ar    1  UNL1        0.1519
      2 C         142.7568  138.7878  164.7302 C.ar    1  UNL1        0.0382
      3 C         143.2454  138.5994  166.1358 C.ar    1  UNL1        0.0032
      4 C         142.9608  139.6430  167.1749 C.ar    1  UNL1        0.0014
      5 C         142.1875  140.8749  166.8085 C.ar    1  UNL1        0.0170
      6 C         141.6988  141.0632  165.4029 C.ar    1  UNL1        0.0823
      7 C         141.9028  141.9186  167.8477 C.2     1  UNL1        0.0125
      8 C         140.7996  141.7060  168.8415 C.2     1  UNL1        0.0873
      9 S         139.9018  140.5069  168.9191 S.3     1  UNL1       -0.0254
     10 C         138.9478  140.7150  170.0578 C.2     1  UNL1        0.2832
     11 O         137.8741  139.7625  170.4938 O.2     1  UNL1       -0.2622
     12 N         139.2560  142.0427  170.6839 N.am    1  UNL1       -0.2425
     13 C         140.4004  142.6552  169.9322 C.2     1  UNL1        0.2583
     14 O         141.0345  143.9837  170.2206 O.2     1  UNL1       -0.2692
     15 H         138.7891  142.4421  171.4532 H       1  UNL1        0.1587
     16 N         140.9255  142.2952  165.0364 N.pl3   1  UNL1       -0.3038
     17 C         139.4469  142.3532  165.2818 C.3     1  UNL1        0.0910
     18 C         138.6735  143.5852  164.9153 C.3     1  UNL1        0.0228
     19 C         139.3789  144.7592  164.3036 C.3     1  UNL1        0.0190
     20 C         140.8576  144.7012  164.0582 C.3     1  UNL1        0.0709
     21 N         141.5630  145.8751  163.4465 N.3     1  UNL1       -0.3208
     22 C         141.6309  143.4692  164.4247 C.3     1  UNL1        0.1062
     23 H         140.8893  146.6187  163.2630 H       1  UNL1        0.1189
     24 H         142.0014  145.5898  162.5708 H       1  UNL1        0.1189
     25 C         140.1443  139.6922  162.5581 C.3     1  UNL1        0.2525
     26 O         141.4948  140.2080  162.9581 O.3     1  UNL1       -0.4702
@<TRIPOS>BOND
     1    25    26    1
     2    26     1    1
     3     1     2   ar
     4     2     3   ar
     5     3     4   ar
     6     4     5   ar
     7     5     7    1
     8     7     8    2
     9     8     9    1
    10     9    10    1
    11    10    11    2
    12    10    12   am
    13    12    13   am
    14    13    14    2
    15     5     6   ar
    16     6    16    1
    17    16    17    1
    18    17    18    1
    19    18    19    1
    20    19    20    1
    21    20    21    1
    22    20    22    1
    23     6     1   ar
    24    22    16    1
    25    13     8    1
    26    12    15    1
    27    21    23    1
    28    21    24    1
@<TRIPOS>MOLECULE
*****
 26 28 0 0 0
SMALL
GASTEIGER

@<TRIPOS>ATOM
      1 C         141.2035  142.0115  164.2562 C.ar    1  UNL1        0.1519
      2 C         142.0927  143.2177  164.1901 C.ar    1  UNL1        0.0382
      3 C         143.1925  143.3946  165.1947 C.ar    1  UNL1        0.0032
      4 C         143.4030  142.3654  166.2653 C.ar    1  UNL1        0.0014
      5 C         142.5138  141.1593  166.3314 C.ar    1  UNL1        0.0170
      6 C         141.4140  140.9823  165.3268 C.ar    1  UNL1        0.0823
      7 C         142.7243  140.1300  167.4021 C.2     1  UNL1        0.0125
      8 C         142.1893  140.3647  168.7836 C.2     1  UNL1        0.0873
      9 S         141.4283  141.5737  169.2408 S.3     1  UNL1       -0.0254
     10 C         141.0900  141.3879  170.6903 C.2     1  UNL1        0.2832
     11 O         140.3327  142.3560  171.5501 O.2     1  UNL1       -0.2622
     12 N         141.6419  140.0639  171.1290 N.am    1  UNL1       -0.2425
     13 C         142.3213  139.4315  169.9506 C.2     1  UNL1        0.2583
     14 O         143.0115  138.0998  169.9409 O.2     1  UNL1       -0.2692
     15 H         141.5708  139.6777  172.0318 H       1  UNL1        0.1587
     16 N         140.5247  139.7761  165.3929 N.pl3   1  UNL1       -0.3038
     17 C         140.7964  138.5947  164.5095 C.3     1  UNL1        0.0910
     18 C         139.9071  137.3885  164.5756 C.3     1  UNL1        0.0228
     19 C         138.7462  137.3637  165.5252 C.3     1  UNL1        0.0190
     20 C         138.4746  138.5452  166.4087 C.3     1  UNL1        0.0709
     21 N         137.3137  138.5204  167.3583 N.3     1  UNL1       -0.3208
     22 C         139.3639  139.7513  166.3425 C.3     1  UNL1        0.1062
     23 H         136.8220  137.6310  167.2710 H       1  UNL1        0.1189
     24 H         136.6761  139.2848  167.1358 H       1  UNL1        0.1189
     25 C         138.7887  142.5285  163.4491 C.3     1  UNL1        0.2525
     26 O         140.1037  141.8346  163.2516 O.3     1  UNL1       -0.4702
@<TRIPOS>BOND
     1    25    26    1
     2    26     1    1
     3     1     2   ar
     4     2     3   ar
     5     3     4   ar
     6     4     5   ar
     7     5     7    1
     8     7     8    2
     9     8     9    1
    10     9    10    1
    11    10    11    2
    12    10    12   am
    13    12    13   am
    14    13    14    2
    15     5     6   ar
    16     6    16    1
    17    16    17    1
    18    17    18    1
    19    18    19    1
    20    19    20    1
    21    20    21    1
    22    20    22    1
    23     6     1   ar
    24    22    16    1
    25    13     8    1
    26    12    15    1
    27    21    23    1
    28    21    24    1
@<TRIPOS>MOLECULE
*****
 26 28 0 0 0
SMALL
GASTEIGER

@<TRIPOS>ATOM
      1 C         140.4402  140.0617  164.3455 C.ar    1  UNL1        0.1519
      2 C         139.4780  138.9524  164.6515 C.ar    1  UNL1        0.0382
      3 C         138.8382  138.8667  166.0055 C.ar    1  UNL1        0.0032
      4 C         139.1605  139.8904  167.0535 C.ar    1  UNL1        0.0014
      5 C         140.1226  140.9996  166.7474 C.ar    1  UNL1        0.0170
      6 C         140.7625  141.0853  165.3934 C.ar    1  UNL1        0.0823
      7 C         140.4450  142.0234  167.7954 C.2     1  UNL1        0.0125
      8 C         141.3712  141.6762  168.9231 C.2     1  UNL1        0.0873
      9 S         142.0471  140.3538  169.1337 S.3     1  UNL1       -0.0254
     10 C         142.8777  140.4509  170.3790 C.2     1  UNL1        0.2832
     11 O         143.7225  139.3575  170.9627 O.2     1  UNL1       -0.2622
     12 N         142.7152  141.8333  170.9380 N.am    1  UNL1       -0.2425
     13 C         141.7841  142.5906  170.0382 C.2     1  UNL1        0.2583
     14 O         141.3434  144.0126  170.2214 O.2     1  UNL1       -0.2692
     15 H         143.1443  142.1823  171.7524 H       1  UNL1        0.1587
     16 N         141.7247  142.1947  165.0874 N.pl3   1  UNL1       -0.3038
     17 C         143.1674  142.0648  165.4766 C.3     1  UNL1        0.0910
     18 C         144.1296  143.1741  165.1706 C.3     1  UNL1        0.0228
     19 C         143.6490  144.4134  164.4754 C.3     1  UNL1        0.0190
     20 C         142.2061  144.5432  164.0862 C.3     1  UNL1        0.0709
     21 N         141.7254  145.7825  163.3911 N.3     1  UNL1       -0.3208
     22 C         141.2440  143.4339  164.3923 C.3     1  UNL1        0.1062
     23 H         142.5067  146.4259  163.2643 H       1  UNL1        0.1189
     24 H         141.0039  146.2308  163.9556 H       1  UNL1        0.1189
     25 C         142.3893  139.4614  162.7359 C.3     1  UNL1        0.2525
     26 O         141.0800  140.1473  162.9915 O.3     1  UNL1       -0.4702
@<TRIPOS>BOND
     1    25    26    1
     2    26     1    1
     3     1     2   ar
     4     2     3   ar
     5     3     4   ar
     6     4     5   ar
     7     5     7    1
     8     7     8    2
     9     8     9    1
    10     9    10    1
    11    10    11    2
    12    10    12   am
    13    12    13   am
    14    13    14    2
    15     5     6   ar
    16     6    16    1
    17    16    17    1
    18    17    18    1
    19    18    19    1
    20    19    20    1
    21    20    21    1
    22    20    22    1
    23     6     1   ar
    24    22    16    1
    25    13     8    1
    26    12    15    1
    27    21    23    1
    28    21    24    1
@<TRIPOS>MOLECULE
*****
 26 28 0 0 0
SMALL
GASTEIGER

@<TRIPOS>ATOM
      1 C         143.3062  140.1525  164.9104 C.ar    1  UNL1        0.1519
      2 C         144.5468  140.7662  164.3324 C.ar    1  UNL1        0.0382
      3 C         144.6108  142.2459  164.0946 C.ar    1  UNL1        0.0032
      4 C         143.4342  143.1118  164.4348 C.ar    1  UNL1        0.0014
      5 C         142.1936  142.4980  165.0128 C.ar    1  UNL1        0.0170
      6 C         142.1296  141.0183  165.2506 C.ar    1  UNL1        0.0823
      7 C         141.0168  143.3639  165.3530 C.2     1  UNL1        0.0125
      8 C         139.9326  143.5874  164.3408 C.2     1  UNL1        0.0873
      9 S         139.8881  143.0144  162.9553 S.3     1  UNL1       -0.0254
     10 C         138.6306  143.4960  162.2946 C.2     1  UNL1        0.2832
     11 O         138.1842  143.1651  160.9014 O.2     1  UNL1       -0.2622
     12 N         137.8978  144.3668  163.2718 N.am    1  UNL1       -0.2425
     13 C         138.7025  144.4232  164.5364 C.2     1  UNL1        0.2583
     14 O         138.3407  145.1823  165.7786 O.2     1  UNL1       -0.2692
     15 H         137.0394  144.8214  163.1113 H       1  UNL1        0.1587
     16 N         140.8889  140.4046  165.8287 N.pl3   1  UNL1       -0.3038
     17 C         139.8766  139.7663  164.9244 C.3     1  UNL1        0.0910
     18 C         138.6359  139.1525  165.5024 C.3     1  UNL1        0.0228
     19 C         138.4076  139.1771  166.9848 C.3     1  UNL1        0.0190
     20 C         139.4200  139.8154  167.8890 C.3     1  UNL1        0.0709
     21 N         139.1917  139.8400  169.3714 N.3     1  UNL1       -0.3208
     22 C         140.6606  140.4291  167.3110 C.3     1  UNL1        0.1062
     23 H         138.3060  139.3821  169.5866 H       1  UNL1        0.1189
     24 H         139.1620  140.8069  169.6948 H       1  UNL1        0.1189
     25 C         143.7125  138.1019  166.4532 C.3     1  UNL1        0.2525
     26 O         143.2422  138.6728  165.1483 O.3     1  UNL1       -0.4702
@<TRIPOS>BOND
     1    25    26    1
     2    26     1    1
     3     1     2   ar
     4     2     3   ar
     5     3     4   ar
     6     4     5   ar
     7     5     7    1
     8     7     8    2
     9     8     9    1
    10     9    10    1
    11    10    11    2
    12    10    12   am
    13    12    13   am
    14    13    14    2
    15     5     6   ar
    16     6    16    1
    17    16    17    1
    18    17    18    1
    19    18    19    1
    20    19    20    1
    21    20    21    1
    22    20    22    1
    23     6     1   ar
    24    22    16    1
    25    13     8    1
    26    12    15    1
    27    21    23    1
    28    21    24    1
@<TRIPOS>MOLECULE
*****
 26 28 0 0 0
SMALL
GASTEIGER

@<TRIPOS>ATOM
      1 C         139.5096  140.3440  164.5665 C.ar    1  UNL1        0.1519
      2 C         138.1825  139.7493  164.9338 C.ar    1  UNL1        0.0382
      3 C         137.9317  139.2846  166.3378 C.ar    1  UNL1        0.0032
      4 C         139.0080  139.4145  167.3744 C.ar    1  UNL1        0.0014
      5 C         140.3351  140.0093  167.0070 C.ar    1  UNL1        0.0170
      6 C         140.5859  140.4740  165.6031 C.ar    1  UNL1        0.0823
      7 C         141.4115  140.1393  168.0437 C.2     1  UNL1        0.0125
      8 C         141.4625  141.3529  168.9238 C.2     1  UNL1        0.0873
      9 S         140.5108  142.5116  168.8838 S.3     1  UNL1       -0.0254
     10 C         140.9343  143.4957  169.9337 C.2     1  UNL1        0.2832
     11 O         140.2623  144.8011  170.2408 O.2     1  UNL1       -0.2622
     12 N         142.1477  142.9452  170.6225 N.am    1  UNL1       -0.2425
     13 C         142.4742  141.6208  169.9984 C.2     1  UNL1        0.2583
     14 O         143.6124  140.7222  170.3815 O.2     1  UNL1       -0.2692
     15 H         142.6429  143.3772  171.3556 H       1  UNL1        0.1587
     16 N         141.9131  141.0688  165.2357 N.pl3   1  UNL1       -0.3038
     17 C         142.1385  142.5449  165.3773 C.3     1  UNL1        0.0910
     18 C         143.4657  143.1397  165.0099 C.3     1  UNL1        0.0228
     19 C         144.5675  142.2582  164.5011 C.3     1  UNL1        0.0190
     20 C         144.3421  140.7819  164.3596 C.3     1  UNL1        0.0709
     21 N         145.4440  139.9004  163.8507 N.3     1  UNL1       -0.3208
     22 C         143.0150  140.1872  164.7269 C.3     1  UNL1        0.1062
     23 H         146.2684  140.4671  163.6518 H       1  UNL1        0.1189
     24 H         145.1386  139.4330  162.9971 H       1  UNL1        0.1189
     25 C         139.4169  142.2137  162.7649 C.3     1  UNL1        0.2525
     26 O         139.7604  140.8088  163.1625 O.3     1  UNL1       -0.4702
@<TRIPOS>BOND
     1    25    26    1
     2    26     1    1
     3     1     2   ar
     4     2     3   ar
     5     3     4   ar
     6     4     5   ar
     7     5     7    1
     8     7     8    2
     9     8     9    1
    10     9    10    1
    11    10    11    2
    12    10    12   am
    13    12    13   am
    14    13    14    2
    15     5     6   ar
    16     6    16    1
    17    16    17    1
    18    17    18    1
    19    18    19    1
    20    19    20    1
    21    20    21    1
    22    20    22    1
    23     6     1   ar
    24    22    16    1
    25    13     8    1
    26    12    15    1
    27    21    23    1
    28    21    24    1
@<TRIPOS>MOLECULE
*****
 26 28 0 0 0
SMALL
GASTEIGER

@<TRIPOS>ATOM
      1 C         143.0712  141.5227  164.1114 C.ar    1  UNL1        0.1519
      2 C         144.2809  142.3768  164.3503 C.ar    1  UNL1        0.0382
      3 C         144.4735  143.0500  165.6769 C.ar    1  UNL1        0.0032
      4 C         143.4565  142.8692  166.7644 C.ar    1  UNL1        0.0014
      5 C         142.2468  142.0151  166.5255 C.ar    1  UNL1        0.0170
      6 C         142.0542  141.3418  165.1990 C.ar    1  UNL1        0.0823
      7 C         141.2297  141.8342  167.6131 C.2     1  UNL1        0.0125
      8 C         141.4132  140.7562  168.6398 C.2     1  UNL1        0.0873
      9 S         142.5570  139.7881  168.7070 S.3     1  UNL1       -0.0254
     10 C         142.3359  138.8906  169.8884 C.2     1  UNL1        0.2832
     11 O         143.2370  137.7754  170.3293 O.2     1  UNL1       -0.2622
     12 N         141.0555  139.3041  170.5514 N.am    1  UNL1       -0.2425
     13 C         140.4853  140.4571  169.7798 C.2     1  UNL1        0.2583
     14 O         139.2108  141.1834  170.0931 O.2     1  UNL1       -0.2692
     15 H         140.6590  138.8912  171.3524 H       1  UNL1        0.1587
     16 N         140.8444  140.4877  164.9600 N.pl3   1  UNL1       -0.3038
     17 C         140.8695  139.0330  165.3247 C.3     1  UNL1        0.0910
     18 C         139.6597  138.1789  165.0858 C.3     1  UNL1        0.0228
     19 C         138.4249  138.7796  164.4822 C.3     1  UNL1        0.0190
     20 C         138.3998  140.2344  164.1176 C.3     1  UNL1        0.0709
     21 N         137.1649  140.8351  163.5140 N.3     1  UNL1       -0.3208
     22 C         139.6095  141.0885  164.3565 C.3     1  UNL1        0.1062
     23 H         136.4466  140.1167  163.4237 H       1  UNL1        0.1189
     24 H         137.3860  141.2126  162.5926 H       1  UNL1        0.1189
     25 C         143.5492  139.5372  162.5054 C.3     1  UNL1        0.2525
     26 O         142.8786  140.8495  162.7849 O.3     1  UNL1       -0.4702
@<TRIPOS>BOND
     1    25    26    1
     2    26     1    1
     3     1     2   ar
     4     2     3   ar
     5     3     4   ar
     6     4     5   ar
     7     5     7    1
     8     7     8    2
     9     8     9    1
    10     9    10    1
    11    10    11    2
    12    10    12   am
    13    12    13   am
    14    13    14    2
    15     5     6   ar
    16     6    16    1
    17    16    17    1
    18    17    18    1
    19    18    19    1
    20    19    20    1
    21    20    21    1
    22    20    22    1
    23     6     1   ar
    24    22    16    1
    25    13     8    1
    26    12    15    1
    27    21    23    1
    28    21    24    1
@<TRIPOS>MOLECULE
*****
 26 28 0 0 0
SMALL
GASTEIGER

@<TRIPOS>ATOM
      1 C         141.9439  138.7947  164.4941 C.ar    1  UNL1        0.1519
      2 C         141.0598  137.5851  164.5661 C.ar    1  UNL1        0.0382
      3 C         139.5916  137.7438  164.8292 C.ar    1  UNL1        0.0032
      4 C         139.0075  139.1121  165.0203 C.ar    1  UNL1        0.0014
      5 C         139.8916  140.3217  164.9483 C.ar    1  UNL1        0.0170
      6 C         141.3598  140.1630  164.6852 C.ar    1  UNL1        0.0823
      7 C         139.3075  141.6901  165.1394 C.2     1  UNL1        0.0125
      8 C         138.7707  142.4476  163.9613 C.2     1  UNL1        0.0873
      9 S         138.7500  141.9684  162.5400 S.3     1  UNL1       -0.0254
     10 C         138.1268  143.0420  161.6979 C.2     1  UNL1        0.2832
     11 O         137.9067  142.9831  160.2153 O.2     1  UNL1       -0.2622
     12 N         137.7623  144.1846  162.5987 N.am    1  UNL1       -0.2425
     13 C         138.1603  143.8173  163.9975 C.2     1  UNL1        0.2583
     14 O         137.9795  144.6700  165.2183 O.2     1  UNL1       -0.2692
     15 H         137.3366  145.0277  162.3207 H       1  UNL1        0.1587
     16 N         142.2439  141.3727  164.6132 N.pl3   1  UNL1       -0.3038
     17 C         142.9607  141.8519  165.8406 C.3     1  UNL1        0.0910
     18 C         143.8448  143.0616  165.7686 C.3     1  UNL1        0.0228
     19 C         144.0121  143.7920  164.4692 C.3     1  UNL1        0.0190
     20 C         143.2953  143.3127  163.2417 C.3     1  UNL1        0.0709
     21 N         143.4626  144.0430  161.9423 N.3     1  UNL1       -0.3208
     22 C         142.4112  142.1030  163.3138 C.3     1  UNL1        0.1062
     23 H         144.0930  144.8337  162.0754 H       1  UNL1        0.1189
     24 H         142.5549  144.3819  161.6234 H       1  UNL1        0.1189
     25 C         143.9384  138.7382  162.8301 C.3     1  UNL1        0.2525
     26 O         143.4121  138.6360  164.2310 O.3     1  UNL1       -0.4702
@<TRIPOS>BOND
     1    25    26    1
     2    26     1    1
     3     1     2   ar
     4     2     3   ar
     5     3     4   ar
     6     4     5   ar
     7     5     7    1
     8     7     8    2
     9     8     9    1
    10     9    10    1
    11    10    11    2
    12    10    12   am
    13    12    13   am
    14    13    14    2
    15     5     6   ar
    16     6    16    1
    17    16    17    1
    18    17    18    1
    19    18    19    1
    20    19    20    1
    21    20    21    1
    22    20    22    1
    23     6     1   ar
    24    22    16    1
    25    13     8    1
    26    12    15    1
    27    21    23    1
    28    21    24    1
@<TRIPOS>MOLECULE
*****
 26 28 0 0 0
SMALL
GASTEIGER

@<TRIPOS>ATOM
      1 C         141.7282  142.4108  164.2110 C.ar    1  UNL1        0.1519
      2 C         142.5959  143.6305  164.3081 C.ar    1  UNL1        0.0382
      3 C         143.5747  143.7668  165.4365 C.ar    1  UNL1        0.0032
      4 C         143.6857  142.6834  166.4680 C.ar    1  UNL1        0.0014
      5 C         142.8180  141.4637  166.3709 C.ar    1  UNL1        0.0170
      6 C         141.8392  141.3275  165.2425 C.ar    1  UNL1        0.0823
      7 C         142.9290  140.3803  167.4024 C.2     1  UNL1        0.0125
      8 C         142.2892  140.5569  168.7475 C.2     1  UNL1        0.0873
      9 S         141.5106  141.7554  169.2030 S.3     1  UNL1       -0.0254
     10 C         141.0558  141.5053  170.6103 C.2     1  UNL1        0.2832
     11 O         140.2457  142.4436  171.4550 O.2     1  UNL1       -0.2622
     12 N         141.5534  140.1523  171.0247 N.am    1  UNL1       -0.2425
     13 C         142.3157  139.5662  169.8735 C.2     1  UNL1        0.2583
     14 O         142.9866  138.2248  169.8519 O.2     1  UNL1       -0.2692
     15 H         141.4056  139.7241  171.8988 H       1  UNL1        0.1587
     16 N         140.9715  140.1077  165.1455 N.pl3   1  UNL1       -0.3038
     17 C         139.6645  140.0568  165.8797 C.3     1  UNL1        0.0910
     18 C         138.7968  138.8370  165.7827 C.3     1  UNL1        0.0228
     19 C         139.2361  137.6683  164.9515 C.3     1  UNL1        0.0190
     20 C         140.5431  137.7193  164.2172 C.3     1  UNL1        0.0709
     21 N         140.9825  136.5505  163.3859 N.3     1  UNL1       -0.3208
     22 C         141.4108  138.9390  164.3142 C.3     1  UNL1        0.1062
     23 H         140.2771  135.8153  163.4334 H       1  UNL1        0.1189
     24 H         141.8694  136.1943  163.7420 H       1  UNL1        0.1189
     25 C         139.5485  143.1710  163.0190 C.3     1  UNL1        0.2525
     26 O         140.7494  142.2746  163.0826 O.3     1  UNL1       -0.4702
@<TRIPOS>BOND
     1    25    26    1
     2    26     1    1
     3     1     2   ar
     4     2     3   ar
     5     3     4   ar
     6     4     5   ar
     7     5     7    1
     8     7     8    2
     9     8     9    1
    10     9    10    1
    11    10    11    2
    12    10    12   am
    13    12    13   am
    14    13    14    2
    15     5     6   ar
    16     6    16    1
    17    16    17    1
    18    17    18    1
    19    18    19    1
    20    19    20    1
    21    20    21    1
    22    20    22    1
    23     6     1   ar
    24    22    16    1
    25    13     8    1
    26    12    15    1
    27    21    23    1
    28    21    24    1
