@<TRIPOS>MOLECULE
*****
 34 38 0 0 0
SMALL
GASTEIGER

@<TRIPOS>ATOM
      1 N         143.8061  138.9327  161.6580 N.pl3   1  UNL1       -0.2802
      2 H         144.2919  138.2385  161.1568 H       1  UNL1        0.1552
      3 C         143.1952  140.0938  160.9307 C.ar    1  UNL1        0.2208
      4 N         143.8792  140.6675  159.7253 N.ar    1  UNL1       -0.2111
      5 C         143.2684  141.8286  158.9981 C.ar    1  UNL1        0.1147
      6 C         141.9736  142.4159  159.4763 C.ar    1  UNL1        0.0960
      7 CL        141.3628  143.5769  158.7490 Cl      1  UNL1       -0.0790
      8 C         141.2896  141.8421  160.6817 C.ar    1  UNL1        0.1138
      9 N         141.9005  140.6811  161.4089 N.ar    1  UNL1       -0.2111
     10 C         139.9948  142.4294  161.1599 C.ar    1  UNL1        0.1031
     11 C         138.6846  142.3861  160.4309 C.ar    1  UNL1        0.1196
     12 N         137.6630  143.0931  161.2715 N.ar    1  UNL1       -0.2248
     13 C         138.3418  143.5732  162.5200 C.ar    1  UNL1        0.1479
     14 C         137.8339  144.3308  163.7107 C.ar    1  UNL1        0.0374
     15 C         138.7671  144.6783  164.8324 C.ar    1  UNL1        0.0046
     16 C         140.2083  144.2681  164.7635 C.ar    1  UNL1        0.0191
     17 C         140.7162  143.5104  163.5728 C.ar    1  UNL1        0.0815
     18 N         139.7830  143.1630  162.4510 N.ar    1  UNL1       -0.2874
     19 C         142.5161  138.0949  163.7518 C.ar    1  UNL1        0.1551
     20 C         142.3868  137.9916  165.2427 C.ar    1  UNL1        0.0750
     21 C         143.4180  138.6228  166.1305 C.ar    1  UNL1        0.1417
     22 C         144.5785  139.3574  165.5275 C.ar    1  UNL1        0.0384
     23 C         144.7078  139.4606  164.0366 C.ar    1  UNL1        0.0209
     24 C         143.6767  138.8294  163.1487 C.ar    1  UNL1        0.0851
     25 C         140.0478  137.8800  162.9700 C.3     1  UNL1        0.2525
     26 O         141.4850  137.4636  162.8640 O.3     1  UNL1       -0.4701
     27 O         143.2886  138.5195  167.6213 O.3     1  UNL1       -0.4755
     28 C         142.5976  139.6058  168.3911 C.3     1  UNL1        0.2052
     29 C         142.0330  140.9530  168.0502 C.3     1  UNL1        0.1387
     30 N         141.6205  141.1419  169.4800 N.am    1  UNL1       -0.2720
     31 C         140.9295  142.2282  170.2498 C.2     1  UNL1        0.2263
     32 C         140.4909  143.4806  169.5504 C.3     1  UNL1        0.0948
     33 O         140.6771  142.0620  171.7191 O.2     1  UNL1       -0.2749
     34 C         142.1851  139.7947  169.8209 C.3     1  UNL1        0.1387
@<TRIPOS>BOND
     1    25    26    1
     2    26    19    1
     3    19    20   ar
     4    20    21   ar
     5    21    27    1
     6    27    28    1
     7    28    29    1
     8    29    30    1
     9    30    31   am
    10    31    32    1
    11    31    33    2
    12    30    34    1
    13    21    22   ar
    14    22    23   ar
    15    23    24   ar
    16    24     1    1
    17     1     3    1
    18     3     4   ar
    19     4     5   ar
    20     5     6   ar
    21     6     7    1
    22     6     8   ar
    23     8    10    1
    24    10    11   ar
    25    11    12   ar
    26    12    13   ar
    27    13    14   ar
    28    14    15   ar
    29    15    16   ar
    30    16    17   ar
    31    17    18   ar
    32     8     9   ar
    33    24    19   ar
    34     9     3   ar
    35    34    28    1
    36    18    10   ar
    37    18    13   ar
    38     1     2    1
@<TRIPOS>MOLECULE
*****
 34 38 0 0 0
SMALL
GASTEIGER

@<TRIPOS>ATOM
      1 N         138.7499  138.6250  161.7543 N.pl3   1  UNL1       -0.2802
      2 H         138.0244  138.2044  161.2385 H       1  UNL1        0.1552
      3 C         139.9662  139.1475  161.0490 C.ar    1  UNL1        0.2208
      4 N         140.2387  138.7491  159.6288 N.ar    1  UNL1       -0.2111
      5 C         141.4550  139.2717  158.9235 C.ar    1  UNL1        0.1147
      6 C         142.3989  140.1925  159.6384 C.ar    1  UNL1        0.0960
      7 CL        143.6153  140.7151  158.9331 Cl      1  UNL1       -0.0790
      8 C         142.1264  140.5909  161.0587 C.ar    1  UNL1        0.1138
      9 N         140.9101  140.0684  161.7639 N.ar    1  UNL1       -0.2111
     10 C         143.0703  141.5118  161.7737 C.ar    1  UNL1        0.1031
     11 C         144.5410  141.2898  161.9677 C.ar    1  UNL1        0.1196
     12 N         145.0887  142.4571  162.7340 N.ar    1  UNL1       -0.2248
     13 C         143.9566  143.4005  163.0136 C.ar    1  UNL1        0.1479
     14 C         143.9004  144.7161  163.7320 C.ar    1  UNL1        0.0374
     15 C         142.5967  145.4474  163.8568 C.ar    1  UNL1        0.0046
     16 C         141.3492  144.8631  163.2632 C.ar    1  UNL1        0.0191
     17 C         141.4054  143.5475  162.5449 C.ar    1  UNL1        0.0815
     18 N         142.7090  142.8163  162.4201 N.ar    1  UNL1       -0.2874
     19 C         138.1830  140.0315  163.8638 C.ar    1  UNL1        0.1551
     20 C         138.0719  140.1497  165.3551 C.ar    1  UNL1        0.0750
     21 C         138.4166  138.9795  166.2279 C.ar    1  UNL1        0.1417
     22 C         138.8723  137.6911  165.6096 C.ar    1  UNL1        0.0384
     23 C         138.9834  137.5730  164.1184 C.ar    1  UNL1        0.0209
     24 C         138.6388  138.7432  163.2455 C.ar    1  UNL1        0.0851
     25 C         137.6158  142.5534  163.6022 C.3     1  UNL1        0.2525
     26 O         137.8384  141.2018  162.9910 O.3     1  UNL1       -0.4701
     27 O         138.3055  139.0977  167.7191 O.3     1  UNL1       -0.4755
     28 C         139.3222  139.8899  168.4864 C.3     1  UNL1        0.2052
     29 C         140.6974  140.4141  168.1965 C.3     1  UNL1        0.1387
     30 N         140.7600  141.0102  169.5716 N.am    1  UNL1       -0.2720
     31 C         141.7767  141.8024  170.3389 C.2     1  UNL1        0.2263
     32 C         143.0888  142.1545  169.7030 C.3     1  UNL1        0.0948
     33 O         141.4814  142.2425  171.7421 O.2     1  UNL1       -0.2749
     34 C         139.3849  140.4860  169.8615 C.3     1  UNL1        0.1387
@<TRIPOS>BOND
     1    25    26    1
     2    26    19    1
     3    19    20   ar
     4    20    21   ar
     5    21    27    1
     6    27    28    1
     7    28    29    1
     8    29    30    1
     9    30    31   am
    10    31    32    1
    11    31    33    2
    12    30    34    1
    13    21    22   ar
    14    22    23   ar
    15    23    24   ar
    16    24     1    1
    17     1     3    1
    18     3     4   ar
    19     4     5   ar
    20     5     6   ar
    21     6     7    1
    22     6     8   ar
    23     8    10    1
    24    10    11   ar
    25    11    12   ar
    26    12    13   ar
    27    13    14   ar
    28    14    15   ar
    29    15    16   ar
    30    16    17   ar
    31    17    18   ar
    32     8     9   ar
    33    24    19   ar
    34     9     3   ar
    35    34    28    1
    36    18    10   ar
    37    18    13   ar
    38     1     2    1
@<TRIPOS>MOLECULE
*****
 34 38 0 0 0
SMALL
GASTEIGER

@<TRIPOS>ATOM
      1 N         138.3183  138.7815  161.2092 N.pl3   1  UNL1       -0.2802
      2 H         137.4619  138.5945  160.7610 H       1  UNL1        0.1552
      3 C         139.5624  138.9824  160.3958 C.ar    1  UNL1        0.2208
      4 N         139.7052  138.3065  159.0644 N.ar    1  UNL1       -0.2111
      5 C         140.9494  138.5074  158.2509 C.ar    1  UNL1        0.1147
      6 C         142.0507  139.3842  158.7688 C.ar    1  UNL1        0.0960
      7 CL        143.2948  139.5850  157.9554 Cl      1  UNL1       -0.0790
      8 C         141.9079  140.0601  160.1004 C.ar    1  UNL1        0.1138
      9 N         140.6638  139.8592  160.9137 N.ar    1  UNL1       -0.2111
     10 C         143.0092  140.9369  160.6183 C.ar    1  UNL1        0.1031
     11 C         143.5209  142.1874  159.9668 C.ar    1  UNL1        0.1196
     12 N         144.6201  142.7405  160.8246 N.ar    1  UNL1       -0.2248
     13 C         144.7878  141.8318  162.0062 C.ar    1  UNL1        0.1479
     14 C         145.7184  141.8754  163.1818 C.ar    1  UNL1        0.0374
     15 C         145.6534  140.8043  164.2299 C.ar    1  UNL1        0.0046
     16 C         144.6578  139.6897  164.1024 C.ar    1  UNL1        0.0191
     17 C         143.7272  139.6461  162.9268 C.ar    1  UNL1        0.0815
     18 N         143.7922  140.7172  161.8787 N.ar    1  UNL1       -0.2874
     19 C         137.9751  140.1311  163.4026 C.ar    1  UNL1        0.1551
     20 C         138.0357  140.2151  164.8992 C.ar    1  UNL1        0.0750
     21 C         138.4999  139.0338  165.6985 C.ar    1  UNL1        0.1417
     22 C         138.9035  137.7684  165.0015 C.ar    1  UNL1        0.0384
     23 C         138.8430  137.6844  163.5051 C.ar    1  UNL1        0.0209
     24 C         138.3788  138.8657  162.7056 C.ar    1  UNL1        0.0851
     25 C         138.4567  142.4398  162.3127 C.3     1  UNL1        0.2525
     26 O         137.5109  141.3124  162.6033 O.3     1  UNL1       -0.4701
     27 O         138.5604  139.1179  167.1949 O.3     1  UNL1       -0.4755
     28 C         139.5803  139.9970  167.8560 C.3     1  UNL1        0.2052
     29 C         140.9624  140.4649  167.5081 C.3     1  UNL1        0.1387
     30 N         141.0227  141.2401  168.7909 N.am    1  UNL1       -0.2720
     31 C         142.0427  142.1192  169.4520 C.2     1  UNL1        0.2263
     32 C         143.3620  142.3705  168.7840 C.3     1  UNL1        0.0948
     33 O         141.7434  142.7468  170.7810 O.2     1  UNL1       -0.2749
     34 C         139.6407  140.7722  169.1387 C.3     1  UNL1        0.1387
@<TRIPOS>BOND
     1    25    26    1
     2    26    19    1
     3    19    20   ar
     4    20    21   ar
     5    21    27    1
     6    27    28    1
     7    28    29    1
     8    29    30    1
     9    30    31   am
    10    31    32    1
    11    31    33    2
    12    30    34    1
    13    21    22   ar
    14    22    23   ar
    15    23    24   ar
    16    24     1    1
    17     1     3    1
    18     3     4   ar
    19     4     5   ar
    20     5     6   ar
    21     6     7    1
    22     6     8   ar
    23     8    10    1
    24    10    11   ar
    25    11    12   ar
    26    12    13   ar
    27    13    14   ar
    28    14    15   ar
    29    15    16   ar
    30    16    17   ar
    31    17    18   ar
    32     8     9   ar
    33    24    19   ar
    34     9     3   ar
    35    34    28    1
    36    18    10   ar
    37    18    13   ar
    38     1     2    1
@<TRIPOS>MOLECULE
*****
 34 38 0 0 0
SMALL
GASTEIGER

@<TRIPOS>ATOM
      1 N         143.2908  139.0893  161.1956 N.pl3   1  UNL1       -0.2802
      2 H         143.8100  138.4567  160.6485 H       1  UNL1        0.1552
      3 C         142.5073  140.1847  160.5351 C.ar    1  UNL1        0.2208
      4 N         142.2613  140.1438  159.0560 N.ar    1  UNL1       -0.2111
      5 C         141.4779  141.2391  158.3954 C.ar    1  UNL1        0.1147
      6 C         140.9404  142.3754  159.2140 C.ar    1  UNL1        0.0960
      7 CL        140.1569  143.4707  158.5534 Cl      1  UNL1       -0.0790
      8 C         141.1864  142.4163  160.6932 C.ar    1  UNL1        0.1138
      9 N         141.9698  141.3209  161.3536 N.ar    1  UNL1       -0.2111
     10 C         140.6489  143.5525  161.5117 C.ar    1  UNL1        0.1031
     11 C         140.9557  145.0069  161.3100 C.ar    1  UNL1        0.1196
     12 N         140.2066  145.7870  162.3493 N.ar    1  UNL1       -0.2248
     13 C         139.4369  144.8149  163.1934 C.ar    1  UNL1        0.1479
     14 C         138.5224  145.0088  164.3665 C.ar    1  UNL1        0.0374
     15 C         137.8813  143.8216  165.0218 C.ar    1  UNL1        0.0046
     16 C         138.1546  142.4406  164.5041 C.ar    1  UNL1        0.0191
     17 C         139.0691  142.2467  163.3311 C.ar    1  UNL1        0.0815
     18 N         139.7102  143.4338  162.6757 N.ar    1  UNL1       -0.2874
     19 C         144.3018  139.6896  163.5124 C.ar    1  UNL1        0.1551
     20 C         144.2941  139.5580  165.0067 C.ar    1  UNL1        0.0750
     21 C         143.2677  138.6946  165.6783 C.ar    1  UNL1        0.1417
     22 C         142.2490  137.9628  164.8557 C.ar    1  UNL1        0.0384
     23 C         142.2567  138.0944  163.3615 C.ar    1  UNL1        0.0209
     24 C         143.2831  138.9578  162.6898 C.ar    1  UNL1        0.0851
     25 C         145.3871  142.0210  163.1430 C.3     1  UNL1        0.2525
     26 O         145.3282  140.5530  162.8408 O.3     1  UNL1       -0.4701
     27 O         143.2600  138.5631  167.1724 O.3     1  UNL1       -0.4755
     28 C         142.6511  139.6427  168.0172 C.3     1  UNL1        0.2052
     29 C         141.8618  140.8878  167.7403 C.3     1  UNL1        0.1387
     30 N         141.7899  141.1695  169.2120 N.am    1  UNL1       -0.2720
     31 C         141.1810  142.2491  170.0567 C.2     1  UNL1        0.2263
     32 C         140.4371  143.3789  169.4084 C.3     1  UNL1        0.0948
     33 O         141.3158  142.1989  171.5498 O.2     1  UNL1       -0.2749
     34 C         142.5792  139.9244  169.4887 C.3     1  UNL1        0.1387
@<TRIPOS>BOND
     1    25    26    1
     2    26    19    1
     3    19    20   ar
     4    20    21   ar
     5    21    27    1
     6    27    28    1
     7    28    29    1
     8    29    30    1
     9    30    31   am
    10    31    32    1
    11    31    33    2
    12    30    34    1
    13    21    22   ar
    14    22    23   ar
    15    23    24   ar
    16    24     1    1
    17     1     3    1
    18     3     4   ar
    19     4     5   ar
    20     5     6   ar
    21     6     7    1
    22     6     8   ar
    23     8    10    1
    24    10    11   ar
    25    11    12   ar
    26    12    13   ar
    27    13    14   ar
    28    14    15   ar
    29    15    16   ar
    30    16    17   ar
    31    17    18   ar
    32     8     9   ar
    33    24    19   ar
    34     9     3   ar
    35    34    28    1
    36    18    10   ar
    37    18    13   ar
    38     1     2    1
@<TRIPOS>MOLECULE
*****
 34 38 0 0 0
SMALL
GASTEIGER

@<TRIPOS>ATOM
      1 N         144.6336  142.5303  160.5381 N.pl3   1  UNL1       -0.2802
      2 H         145.2014  143.1197  159.9910 H       1  UNL1        0.1552
      3 C         143.8383  141.4384  159.8860 C.ar    1  UNL1        0.2208
      4 N         144.2415  140.9199  158.5374 N.ar    1  UNL1       -0.2111
      5 C         143.4463  139.8280  157.8853 C.ar    1  UNL1        0.1147
      6 C         142.2478  139.2546  158.5816 C.ar    1  UNL1        0.0960
      7 CL        141.4525  138.1628  157.9295 Cl      1  UNL1       -0.0790
      8 C         141.8445  139.7732  159.9302 C.ar    1  UNL1        0.1138
      9 N         142.6398  140.8651  160.5823 N.ar    1  UNL1       -0.2111
     10 C         140.6461  139.1999  160.6266 C.ar    1  UNL1        0.1031
     11 C         139.2603  139.1025  160.0607 C.ar    1  UNL1        0.1196
     12 N         138.3808  138.4657  161.0955 N.ar    1  UNL1       -0.2248
     13 C         139.2229  138.1694  162.3009 C.ar    1  UNL1        0.1479
     14 C         138.8958  137.5452  163.6250 C.ar    1  UNL1        0.0374
     15 C         139.9687  137.3746  164.6593 C.ar    1  UNL1        0.0046
     16 C         141.3687  137.8284  164.3695 C.ar    1  UNL1        0.0191
     17 C         141.6958  138.4527  163.0454 C.ar    1  UNL1        0.0815
     18 N         140.6229  138.6232  162.0111 N.ar    1  UNL1       -0.2874
     19 C         143.6803  143.7907  162.6003 C.ar    1  UNL1        0.1551
     20 C         143.6104  143.9845  164.0862 C.ar    1  UNL1        0.0750
     21 C         144.4239  143.1119  164.9955 C.ar    1  UNL1        0.1417
     22 C         145.3073  142.0455  164.4190 C.ar    1  UNL1        0.0384
     23 C         145.3771  141.8516  162.9332 C.ar    1  UNL1        0.0209
     24 C         144.5636  142.7242  162.0239 C.ar    1  UNL1        0.0851
     25 C         141.4653  144.2694  161.3297 C.3     1  UNL1        0.2525
     26 O         142.8668  144.6633  161.6911 O.3     1  UNL1       -0.4701
     27 O         144.3540  143.3059  166.4812 O.3     1  UNL1       -0.4755
     28 C         143.3827  142.5053  167.2971 C.3     1  UNL1        0.2052
     29 C         143.1190  142.3324  168.7636 C.3     1  UNL1        0.1387
     30 N         142.0090  141.3730  168.4509 N.am    1  UNL1       -0.2720
     31 C         141.0378  140.5724  169.2668 C.2     1  UNL1        0.2263
     32 C         141.0704  140.6537  170.7642 C.3     1  UNL1        0.0948
     33 O         140.0339  139.6905  168.5852 O.2     1  UNL1       -0.2749
     34 C         142.2728  141.5459  166.9844 C.3     1  UNL1        0.1387
@<TRIPOS>BOND
     1    25    26    1
     2    26    19    1
     3    19    20   ar
     4    20    21   ar
     5    21    27    1
     6    27    28    1
     7    28    29    1
     8    29    30    1
     9    30    31   am
    10    31    32    1
    11    31    33    2
    12    30    34    1
    13    21    22   ar
    14    22    23   ar
    15    23    24   ar
    16    24     1    1
    17     1     3    1
    18     3     4   ar
    19     4     5   ar
    20     5     6   ar
    21     6     7    1
    22     6     8   ar
    23     8    10    1
    24    10    11   ar
    25    11    12   ar
    26    12    13   ar
    27    13    14   ar
    28    14    15   ar
    29    15    16   ar
    30    16    17   ar
    31    17    18   ar
    32     8     9   ar
    33    24    19   ar
    34     9     3   ar
    35    34    28    1
    36    18    10   ar
    37    18    13   ar
    38     1     2    1
@<TRIPOS>MOLECULE
*****
 34 38 0 0 0
SMALL
GASTEIGER

@<TRIPOS>ATOM
      1 N         140.5860  145.9998  160.9384 N.pl3   1  UNL1       -0.2802
      2 H         140.6100  146.9824  160.8821 H       1  UNL1        0.1552
      3 C         140.6741  145.1747  159.6888 C.ar    1  UNL1        0.2208
      4 N         141.8044  145.3894  158.7264 N.ar    1  UNL1       -0.2111
      5 C         141.8925  144.5643  157.4769 C.ar    1  UNL1        0.1147
      6 C         140.8503  143.5244  157.1897 C.ar    1  UNL1        0.0960
      7 CL        140.9384  142.6992  155.9402 Cl      1  UNL1       -0.0790
      8 C         139.7199  143.3096  158.1522 C.ar    1  UNL1        0.1138
      9 N         139.6319  144.1348  159.4017 N.ar    1  UNL1       -0.2111
     10 C         138.6777  142.2698  157.8651 C.ar    1  UNL1        0.1031
     11 C         138.4789  140.9888  158.6199 C.ar    1  UNL1        0.1196
     12 N         137.3296  140.2557  157.9940 N.ar    1  UNL1       -0.2248
     13 C         136.8182  141.0835  156.8524 C.ar    1  UNL1        0.1479
     14 C         135.7015  140.8646  155.8751 C.ar    1  UNL1        0.0374
     15 C         135.4180  141.8905  154.8182 C.ar    1  UNL1        0.0046
     16 C         136.2512  143.1353  154.7386 C.ar    1  UNL1        0.0191
     17 C         137.3679  143.3542  155.7158 C.ar    1  UNL1        0.0815
     18 N         137.6514  142.3283  156.7727 N.ar    1  UNL1       -0.2874
     19 C         141.6645  144.7002  162.9127 C.ar    1  UNL1        0.1551
     20 C         141.5397  144.0283  164.2480 C.ar    1  UNL1        0.0750
     21 C         140.2118  143.9842  164.9443 C.ar    1  UNL1        0.1417
     22 C         139.0087  144.6119  164.3053 C.ar    1  UNL1        0.0384
     23 C         139.1334  145.2838  162.9700 C.ar    1  UNL1        0.0209
     24 C         140.4613  145.3279  162.2736 C.ar    1  UNL1        0.0851
     25 C         144.2321  144.3043  162.9372 C.3     1  UNL1        0.2525
     26 O         142.9923  144.7443  162.2164 O.3     1  UNL1       -0.4701
     27 O         140.0871  143.3123  166.2796 O.3     1  UNL1       -0.4755
     28 C         140.8999  142.0884  166.5820 C.3     1  UNL1        0.2052
     29 C         141.5626  141.0248  165.7576 C.3     1  UNL1        0.1387
     30 N         142.0493  140.3575  167.0099 N.am    1  UNL1       -0.2720
     31 C         142.8620  139.1336  167.3124 C.2     1  UNL1        0.2263
     32 C         143.3763  138.2790  166.1920 C.3     1  UNL1        0.0948
     33 O         143.1605  138.7643  168.7352 O.2     1  UNL1       -0.2749
     34 C         141.3865  141.4211  167.8342 C.3     1  UNL1        0.1387
@<TRIPOS>BOND
     1    25    26    1
     2    26    19    1
     3    19    20   ar
     4    20    21   ar
     5    21    27    1
     6    27    28    1
     7    28    29    1
     8    29    30    1
     9    30    31   am
    10    31    32    1
    11    31    33    2
    12    30    34    1
    13    21    22   ar
    14    22    23   ar
    15    23    24   ar
    16    24     1    1
    17     1     3    1
    18     3     4   ar
    19     4     5   ar
    20     5     6   ar
    21     6     7    1
    22     6     8   ar
    23     8    10    1
    24    10    11   ar
    25    11    12   ar
    26    12    13   ar
    27    13    14   ar
    28    14    15   ar
    29    15    16   ar
    30    16    17   ar
    31    17    18   ar
    32     8     9   ar
    33    24    19   ar
    34     9     3   ar
    35    34    28    1
    36    18    10   ar
    37    18    13   ar
    38     1     2    1
@<TRIPOS>MOLECULE
*****
 34 38 0 0 0
SMALL
GASTEIGER

@<TRIPOS>ATOM
      1 N         144.4851  139.0598  161.6489 N.pl3   1  UNL1       -0.2802
      2 H         145.3766  138.6622  161.5203 H       1  UNL1        0.1552
      3 C         143.7728  139.6941  160.4912 C.ar    1  UNL1        0.2208
      4 N         143.5612  138.9186  159.2248 N.ar    1  UNL1       -0.2111
      5 C         142.8489  139.5529  158.0671 C.ar    1  UNL1        0.1147
      6 C         142.3481  140.9627  158.1759 C.ar    1  UNL1        0.0960
      7 CL        141.6358  141.5970  157.0182 Cl      1  UNL1       -0.0790
      8 C         142.5597  141.7382  159.4424 C.ar    1  UNL1        0.1138
      9 N         143.2720  141.1038  160.6000 N.ar    1  UNL1       -0.2111
     10 C         142.0590  143.1480  159.5512 C.ar    1  UNL1        0.1031
     11 C         142.3798  144.2725  158.6117 C.ar    1  UNL1        0.1196
     12 N         141.6686  145.5002  159.0985 N.ar    1  UNL1       -0.2248
     13 C         140.9082  145.1344  160.3387 C.ar    1  UNL1        0.1479
     14 C         140.0274  145.9373  161.2494 C.ar    1  UNL1        0.0374
     15 C         139.3878  145.2864  162.4398 C.ar    1  UNL1        0.0046
     16 C         139.6291  143.8326  162.7196 C.ar    1  UNL1        0.0191
     17 C         140.5099  143.0297  161.8089 C.ar    1  UNL1        0.0815
     18 N         141.1495  143.6806  160.6185 N.ar    1  UNL1       -0.2874
     19 C         142.5512  138.2893  163.2033 C.ar    1  UNL1        0.1551
     20 C         141.9054  138.2608  164.5570 C.ar    1  UNL1        0.0750
     21 C         142.5478  138.9740  165.7096 C.ar    1  UNL1        0.1417
     22 C         143.8360  139.7159  165.5087 C.ar    1  UNL1        0.0384
     23 C         144.4817  139.7444  164.1551 C.ar    1  UNL1        0.0209
     24 C         143.8393  139.0312  163.0024 C.ar    1  UNL1        0.0851
     25 C         140.6614  138.1290  161.4277 C.3     1  UNL1        0.2525
     26 O         141.9088  137.5760  162.0507 O.3     1  UNL1       -0.4701
     27 O         141.9021  138.9454  167.0632 O.3     1  UNL1       -0.4755
     28 C         141.8273  140.1980  167.8850 C.3     1  UNL1        0.2052
     29 C         140.7769  141.2380  168.1404 C.3     1  UNL1        0.1387
     30 N         141.7216  141.9695  169.0473 N.am    1  UNL1       -0.2720
     31 C         141.6469  143.2221  169.8692 C.2     1  UNL1        0.2263
     32 C         140.3878  144.0372  169.8811 C.3     1  UNL1        0.0948
     33 O         142.8312  143.6595  170.6791 O.2     1  UNL1       -0.2749
     34 C         142.7719  140.9295  168.7920 C.3     1  UNL1        0.1387
@<TRIPOS>BOND
     1    25    26    1
     2    26    19    1
     3    19    20   ar
     4    20    21   ar
     5    21    27    1
     6    27    28    1
     7    28    29    1
     8    29    30    1
     9    30    31   am
    10    31    32    1
    11    31    33    2
    12    30    34    1
    13    21    22   ar
    14    22    23   ar
    15    23    24   ar
    16    24     1    1
    17     1     3    1
    18     3     4   ar
    19     4     5   ar
    20     5     6   ar
    21     6     7    1
    22     6     8   ar
    23     8    10    1
    24    10    11   ar
    25    11    12   ar
    26    12    13   ar
    27    13    14   ar
    28    14    15   ar
    29    15    16   ar
    30    16    17   ar
    31    17    18   ar
    32     8     9   ar
    33    24    19   ar
    34     9     3   ar
    35    34    28    1
    36    18    10   ar
    37    18    13   ar
    38     1     2    1
@<TRIPOS>MOLECULE
*****
 34 38 0 0 0
SMALL
GASTEIGER

@<TRIPOS>ATOM
      1 N         138.9237  139.3415  158.5890 N.pl3   1  UNL1       -0.2802
      2 H         138.2565  139.6481  157.9332 H       1  UNL1        0.1552
      3 C         138.7661  139.6919  160.0390 C.ar    1  UNL1        0.2208
      4 N         138.2447  138.6698  161.0052 N.ar    1  UNL1       -0.2111
      5 C         138.0871  139.0202  162.4551 C.ar    1  UNL1        0.1147
      6 C         138.4508  140.3926  162.9389 C.ar    1  UNL1        0.0960
      7 CL        138.2932  140.7430  164.3889 Cl      1  UNL1       -0.0790
      8 C         138.9722  141.4148  161.9727 C.ar    1  UNL1        0.1138
      9 N         139.1298  141.0643  160.5228 N.ar    1  UNL1       -0.2111
     10 C         139.3360  142.7872  162.4565 C.ar    1  UNL1        0.1031
     11 C         138.3926  143.9409  162.6268 C.ar    1  UNL1        0.1196
     12 N         139.1806  145.1136  163.1305 N.ar    1  UNL1       -0.2248
     13 C         140.6111  144.6847  163.2714 C.ar    1  UNL1        0.1479
     14 C         141.8386  145.4177  163.7252 C.ar    1  UNL1        0.0374
     15 C         143.1621  144.7129  163.7625 C.ar    1  UNL1        0.0046
     16 C         143.2581  143.2751  163.3459 C.ar    1  UNL1        0.0191
     17 C         142.0307  142.5421  162.8921 C.ar    1  UNL1        0.0815
     18 N         140.7071  143.2470  162.8548 N.ar    1  UNL1       -0.2874
     19 C         139.9822  137.6516  156.9236 C.ar    1  UNL1        0.1551
     20 C         141.1564  136.8340  156.4729 C.ar    1  UNL1        0.0750
     21 C         142.4461  136.8891  157.2368 C.ar    1  UNL1        0.1417
     22 C         142.5616  137.7615  158.4515 C.ar    1  UNL1        0.0384
     23 C         141.3875  138.5790  158.9022 C.ar    1  UNL1        0.0209
     24 C         140.0977  138.5240  158.1383 C.ar    1  UNL1        0.0851
     25 C         138.7046  137.3105  154.6872 C.3     1  UNL1        0.2525
     26 O         138.6925  137.5966  156.1596 O.3     1  UNL1       -0.4701
     27 O         143.6201  136.0716  156.7861 O.3     1  UNL1       -0.4755
     28 C         143.5683  134.5748  156.8700 C.3     1  UNL1        0.2052
     29 C         142.8773  133.4923  156.0950 C.3     1  UNL1        0.1387
     30 N         143.4950  132.4581  156.9888 N.am    1  UNL1       -0.2720
     31 C         143.4432  130.9613  157.0727 C.2     1  UNL1        0.2263
     32 C         142.6158  130.1834  156.0928 C.3     1  UNL1        0.0948
     33 O         144.2187  130.2425  158.1366 O.2     1  UNL1       -0.2749
     34 C         144.1860  133.5406  157.7637 C.3     1  UNL1        0.1387
@<TRIPOS>BOND
     1    25    26    1
     2    26    19    1
     3    19    20   ar
     4    20    21   ar
     5    21    27    1
     6    27    28    1
     7    28    29    1
     8    29    30    1
     9    30    31   am
    10    31    32    1
    11    31    33    2
    12    30    34    1
    13    21    22   ar
    14    22    23   ar
    15    23    24   ar
    16    24     1    1
    17     1     3    1
    18     3     4   ar
    19     4     5   ar
    20     5     6   ar
    21     6     7    1
    22     6     8   ar
    23     8    10    1
    24    10    11   ar
    25    11    12   ar
    26    12    13   ar
    27    13    14   ar
    28    14    15   ar
    29    15    16   ar
    30    16    17   ar
    31    17    18   ar
    32     8     9   ar
    33    24    19   ar
    34     9     3   ar
    35    34    28    1
    36    18    10   ar
    37    18    13   ar
    38     1     2    1
@<TRIPOS>MOLECULE
*****
 34 38 0 0 0
SMALL
GASTEIGER

@<TRIPOS>ATOM
      1 N         142.7446  137.8033  161.5507 N.pl3   1  UNL1       -0.2802
      2 H         143.1681  136.9228  161.4300 H       1  UNL1        0.1552
      3 C         141.6626  137.9810  162.5743 C.ar    1  UNL1        0.2208
      4 N         141.4725  136.9538  163.6507 N.ar    1  UNL1       -0.2111
      5 C         140.3905  137.1315  164.6743 C.ar    1  UNL1        0.1147
      6 C         139.4986  138.3364  164.6214 C.ar    1  UNL1        0.0960
      7 CL        138.4166  138.5141  165.6450 Cl      1  UNL1       -0.0790
      8 C         139.6887  139.3637  163.5449 C.ar    1  UNL1        0.1138
      9 N         140.7707  139.1859  162.5214 N.ar    1  UNL1       -0.2111
     10 C         138.7968  140.5686  163.4920 C.ar    1  UNL1        0.1031
     11 C         137.5715  140.7218  162.6405 C.ar    1  UNL1        0.1196
     12 N         136.9911  142.0797  162.9037 N.ar    1  UNL1       -0.2248
     13 C         137.8578  142.7657  163.9177 C.ar    1  UNL1        0.1479
     14 C         137.7749  144.1201  164.5570 C.ar    1  UNL1        0.0374
     15 C         138.8080  144.5405  165.5599 C.ar    1  UNL1        0.0046
     16 C         139.9240  143.6066  165.9235 C.ar    1  UNL1        0.0191
     17 C         140.0069  142.2522  165.2843 C.ar    1  UNL1        0.0815
     18 N         138.9738  141.8317  164.2814 N.ar    1  UNL1       -0.2874
     19 C         144.0156  140.0570  161.3161 C.ar    1  UNL1        0.1551
     20 C         144.4523  141.2209  160.4764 C.ar    1  UNL1        0.0750
     21 C         144.0548  141.2946  159.0320 C.ar    1  UNL1        0.1417
     22 C         143.2206  140.2046  158.4271 C.ar    1  UNL1        0.0384
     23 C         142.7839  139.0408  159.2667 C.ar    1  UNL1        0.0209
     24 C         143.1813  138.9670  160.7112 C.ar    1  UNL1        0.0851
     25 C         145.1381  141.1311  163.3985 C.3     1  UNL1        0.2525
     26 O         144.4131  139.9833  162.7606 O.3     1  UNL1       -0.4701
     27 O         144.4916  142.4583  158.1924 O.3     1  UNL1       -0.4755
     28 C         145.4385  142.2446  157.0489 C.3     1  UNL1        0.2052
     29 C         146.9088  142.4519  156.8363 C.3     1  UNL1        0.1387
     30 N         146.7775  141.9422  155.4315 N.am    1  UNL1       -0.2720
     31 C         147.7243  141.7285  154.2879 C.2     1  UNL1        0.2263
     32 C         149.1785  142.0606  154.4461 C.3     1  UNL1        0.0948
     33 O         147.2170  141.1826  152.9862 O.2     1  UNL1       -0.2749
     34 C         145.3072  141.7350  155.6442 C.3     1  UNL1        0.1387
@<TRIPOS>BOND
     1    25    26    1
     2    26    19    1
     3    19    20   ar
     4    20    21   ar
     5    21    27    1
     6    27    28    1
     7    28    29    1
     8    29    30    1
     9    30    31   am
    10    31    32    1
    11    31    33    2
    12    30    34    1
    13    21    22   ar
    14    22    23   ar
    15    23    24   ar
    16    24     1    1
    17     1     3    1
    18     3     4   ar
    19     4     5   ar
    20     5     6   ar
    21     6     7    1
    22     6     8   ar
    23     8    10    1
    24    10    11   ar
    25    11    12   ar
    26    12    13   ar
    27    13    14   ar
    28    14    15   ar
    29    15    16   ar
    30    16    17   ar
    31    17    18   ar
    32     8     9   ar
    33    24    19   ar
    34     9     3   ar
    35    34    28    1
    36    18    10   ar
    37    18    13   ar
    38     1     2    1
