@<TRIPOS>MOLECULE
*****
 36 39 0 0 0
SMALL
GASTEIGER

@<TRIPOS>ATOM
      1 C         139.6169  139.8770  168.0596 C.ar    1  UNL1        0.1345
      2 C         140.6854  140.5540  167.2533 C.ar    1  UNL1        0.0489
      3 C         141.7474  141.3593  167.9416 C.ar    1  UNL1        0.0533
      4 C         141.7410  141.4875  169.4361 C.ar    1  UNL1        0.0854
      5 C         140.6725  140.8104  170.2424 C.ar    1  UNL1        0.1060
      6 N         139.6105  140.0052  169.5541 N.ar    1  UNL1       -0.2288
      7 C         142.8029  142.2927  170.1244 C.2     1  UNL1        0.2455
      8 N         142.5372  142.8843  171.4770 N.am    1  UNL1       -0.3252
      9 O         144.1307  142.5064  169.4601 O.2     1  UNL1       -0.2703
     10 H         141.6657  142.7441  171.9130 H       1  UNL1        0.1453
     11 H         143.2342  143.4128  171.9287 H       1  UNL1        0.1453
     12 N         138.5549  139.0717  167.3713 N.pl3   1  UNL1       -0.2832
     13 H         137.8890  138.5786  167.9030 H       1  UNL1        0.1550
     14 C         137.4780  141.3335  162.8189 C.3     1  UNL1        0.0737
     15 C         137.9690  140.1487  163.5968 C.ar    1  UNL1        0.1410
     16 N         138.4126  138.9100  162.8765 N.ar    1  UNL1       -0.2291
     17 C         138.9036  137.7252  163.6544 C.ar    1  UNL1        0.1031
     18 C         138.9510  137.7791  165.1527 C.ar    1  UNL1        0.0551
     19 C         138.5075  139.0178  165.8730 C.ar    1  UNL1        0.1361
     20 N         138.0165  140.2026  165.0951 N.ar    1  UNL1       -0.2159
     21 N         142.8158  142.0364  167.1354 N.pl3   1  UNL1       -0.3337
     22 H         143.7270  142.1213  167.4984 H       1  UNL1        0.1468
     23 C         142.4959  142.5842  165.7761 C.3     1  UNL1        0.0724
     24 C         143.5808  142.7251  164.7499 C.3     1  UNL1        0.0410
     25 C         143.2609  143.2729  163.3906 C.3     1  UNL1        0.0939
     26 N         141.8560  143.6797  163.0576 N.pl3   1  UNL1       -0.2931
     27 C         140.7711  143.5388  164.0838 C.3     1  UNL1        0.0939
     28 C         141.0911  142.9910  165.4431 C.3     1  UNL1        0.0410
     29 C         141.5361  144.2275  161.6983 C.ar    1  UNL1        0.1317
     30 C         140.5438  145.3430  161.5539 C.ar    1  UNL1        0.0350
     31 C         140.2238  145.8909  160.1946 C.ar    1  UNL1        0.0147
     32 C         140.8961  145.3230  158.9798 C.ar    1  UNL1        0.0877
     33 C         141.8884  144.2074  159.1243 C.ar    1  UNL1        0.1105
     34 N         142.2083  143.6596  160.4836 N.ar    1  UNL1       -0.2285
     35 C         140.5761  145.8708  157.6206 C.1     1  UNL1        0.1020
     36 N         140.2561  146.4186  156.2613 N.1     1  UNL1       -0.1908
@<TRIPOS>BOND
     1    14    15    1
     2    15    16   ar
     3    16    17   ar
     4    17    18   ar
     5    18    19   ar
     6    19    12    1
     7    12     1    1
     8     1     2   ar
     9     2     3   ar
    10     3    21    1
    11    21    23    1
    12    23    24    1
    13    24    25    1
    14    25    26    1
    15    26    29    1
    16    29    30   ar
    17    30    31   ar
    18    31    32   ar
    19    32    35    1
    20    35    36    3
    21    32    33   ar
    22    33    34   ar
    23    26    27    1
    24    27    28    1
    25     3     4   ar
    26     4     7    1
    27     7     8   am
    28     7     9    2
    29     4     5   ar
    30     5     6   ar
    31    19    20   ar
    32    20    15   ar
    33     6     1   ar
    34    28    23    1
    35    34    29   ar
    36    12    13    1
    37    21    22    1
    38     8    10    1
    39     8    11    1
@<TRIPOS>MOLECULE
*****
 36 39 0 0 0
SMALL
GASTEIGER

@<TRIPOS>ATOM
      1 C         139.1194  139.6294  167.0199 C.ar    1  UNL1        0.1345
      2 C         139.9187  140.7304  166.3882 C.ar    1  UNL1        0.0489
      3 C         140.5082  141.8140  167.2417 C.ar    1  UNL1        0.0533
      4 C         140.2982  141.7967  168.7268 C.ar    1  UNL1        0.0854
      5 C         139.4989  140.6957  169.3585 C.ar    1  UNL1        0.1060
      6 N         138.9095  139.6121  168.5051 N.ar    1  UNL1       -0.2288
      7 C         140.8876  142.8803  169.5803 C.2     1  UNL1        0.2455
      8 N         139.9878  143.8159  170.3319 N.am    1  UNL1       -0.3252
      9 O         142.3768  143.0283  169.6821 O.2     1  UNL1       -0.2703
     10 H         139.0104  143.7188  170.2651 H       1  UNL1        0.1453
     11 H         140.3747  144.5272  170.8921 H       1  UNL1        0.1453
     12 N         138.5300  138.5458  166.1665 N.pl3   1  UNL1       -0.2832
     13 H         137.7358  138.0530  166.4756 H       1  UNL1        0.1550
     14 C         138.4523  138.7744  160.9759 C.3     1  UNL1        0.0737
     15 C         139.1119  138.3273  162.2468 C.ar    1  UNL1        0.1410
     16 N         140.3921  137.5476  162.1933 N.ar    1  UNL1       -0.2291
     17 C         141.0517  137.1005  163.4642 C.ar    1  UNL1        0.1031
     18 C         140.4310  137.4333  164.7886 C.ar    1  UNL1        0.0551
     19 C         139.1508  138.2131  164.8421 C.ar    1  UNL1        0.1361
     20 N         138.4912  138.6601  163.5712 N.ar    1  UNL1       -0.2159
     21 N         141.3075  142.9149  166.6101 N.pl3   1  UNL1       -0.3337
     22 H         141.9329  143.4445  167.1556 H       1  UNL1        0.1468
     23 C         141.1538  143.2090  165.1472 C.3     1  UNL1        0.0724
     24 C         142.0896  142.5853  164.1545 C.3     1  UNL1        0.0410
     25 C         141.9359  142.8794  162.6916 C.3     1  UNL1        0.0939
     26 N         140.8465  143.7971  162.2214 N.pl3   1  UNL1       -0.2931
     27 C         139.9108  144.4207  163.2142 C.3     1  UNL1        0.0939
     28 C         140.0644  144.1267  164.6770 C.3     1  UNL1        0.0410
     29 C         140.6929  144.0911  160.7586 C.ar    1  UNL1        0.1317
     30 C         139.6973  143.3240  159.9400 C.ar    1  UNL1        0.0350
     31 C         139.5436  143.6180  158.4771 C.ar    1  UNL1        0.0147
     32 C         140.3855  144.6792  157.8329 C.ar    1  UNL1        0.0877
     33 C         141.3811  145.4464  158.6516 C.ar    1  UNL1        0.1105
     34 N         141.5348  145.1524  160.1144 N.ar    1  UNL1       -0.2285
     35 C         140.2318  144.9733  156.3701 C.1     1  UNL1        0.1020
     36 N         140.0781  145.2674  154.9072 N.1     1  UNL1       -0.1908
@<TRIPOS>BOND
     1    14    15    1
     2    15    16   ar
     3    16    17   ar
     4    17    18   ar
     5    18    19   ar
     6    19    12    1
     7    12     1    1
     8     1     2   ar
     9     2     3   ar
    10     3    21    1
    11    21    23    1
    12    23    24    1
    13    24    25    1
    14    25    26    1
    15    26    29    1
    16    29    30   ar
    17    30    31   ar
    18    31    32   ar
    19    32    35    1
    20    35    36    3
    21    32    33   ar
    22    33    34   ar
    23    26    27    1
    24    27    28    1
    25     3     4   ar
    26     4     7    1
    27     7     8   am
    28     7     9    2
    29     4     5   ar
    30     5     6   ar
    31    19    20   ar
    32    20    15   ar
    33     6     1   ar
    34    28    23    1
    35    34    29   ar
    36    12    13    1
    37    21    22    1
    38     8    10    1
    39     8    11    1
@<TRIPOS>MOLECULE
*****
 36 39 0 0 0
SMALL
GASTEIGER

@<TRIPOS>ATOM
      1 C         139.1540  139.8351  167.9623 C.ar    1  UNL1        0.1345
      2 C         140.1662  140.7117  167.2864 C.ar    1  UNL1        0.0489
      3 C         140.8995  141.7563  168.0747 C.ar    1  UNL1        0.0533
      4 C         140.6204  141.9242  169.5389 C.ar    1  UNL1        0.0854
      5 C         139.6081  141.0476  170.2148 C.ar    1  UNL1        0.1060
      6 N         138.8749  140.0031  169.4266 N.ar    1  UNL1       -0.2288
      7 C         141.3536  142.9687  170.3271 C.2     1  UNL1        0.2455
      8 N         142.5273  142.5806  171.1768 N.am    1  UNL1       -0.3252
      9 O         140.9132  144.4013  170.2657 O.2     1  UNL1       -0.2703
     10 H         142.8164  141.6404  171.2172 H       1  UNL1        0.1453
     11 H         143.0085  143.2662  171.6942 H       1  UNL1        0.1453
     12 N         138.4208  138.7906  167.1741 N.pl3   1  UNL1       -0.2832
     13 H         137.9230  138.0809  167.6408 H       1  UNL1        0.1550
     14 C         137.5031  141.3013  162.7183 C.3     1  UNL1        0.0737
     15 C         137.9871  140.0828  163.4468 C.ar    1  UNL1        0.1410
     16 N         138.4962  138.9010  162.6761 N.ar    1  UNL1       -0.2291
     17 C         138.9803  137.6824  163.4046 C.ar    1  UNL1        0.1031
     18 C         138.9551  137.6456  164.9039 C.ar    1  UNL1        0.0551
     19 C         138.4459  138.8274  165.6747 C.ar    1  UNL1        0.1361
     20 N         137.9619  140.0460  164.9461 N.ar    1  UNL1       -0.2159
     21 N         141.9118  142.6328  167.3988 N.pl3   1  UNL1       -0.3337
     22 H         142.3265  143.3768  167.8924 H       1  UNL1        0.1468
     23 C         142.2921  142.3758  165.9707 C.3     1  UNL1        0.0724
     24 C         141.5614  143.0743  164.8625 C.3     1  UNL1        0.0410
     25 C         141.9418  142.8173  163.4345 C.3     1  UNL1        0.0939
     26 N         143.0528  141.8617  163.1146 N.pl3   1  UNL1       -0.2931
     27 C         143.7836  141.1631  164.2229 C.3     1  UNL1        0.0939
     28 C         143.4032  141.4202  165.6509 C.3     1  UNL1        0.0410
     29 C         143.4332  141.6046  161.6866 C.ar    1  UNL1        0.1317
     30 C         143.2382  140.2413  161.0924 C.ar    1  UNL1        0.0350
     31 C         143.6186  139.9841  159.6643 C.ar    1  UNL1        0.0147
     32 C         144.1940  141.0904  158.8306 C.ar    1  UNL1        0.0877
     33 C         144.3890  142.4538  159.4249 C.ar    1  UNL1        0.1105
     34 N         144.0086  142.7109  160.8529 N.ar    1  UNL1       -0.2285
     35 C         144.5743  140.8334  157.4026 C.1     1  UNL1        0.1020
     36 N         144.9548  140.5763  155.9746 N.1     1  UNL1       -0.1908
@<TRIPOS>BOND
     1    14    15    1
     2    15    16   ar
     3    16    17   ar
     4    17    18   ar
     5    18    19   ar
     6    19    12    1
     7    12     1    1
     8     1     2   ar
     9     2     3   ar
    10     3    21    1
    11    21    23    1
    12    23    24    1
    13    24    25    1
    14    25    26    1
    15    26    29    1
    16    29    30   ar
    17    30    31   ar
    18    31    32   ar
    19    32    35    1
    20    35    36    3
    21    32    33   ar
    22    33    34   ar
    23    26    27    1
    24    27    28    1
    25     3     4   ar
    26     4     7    1
    27     7     8   am
    28     7     9    2
    29     4     5   ar
    30     5     6   ar
    31    19    20   ar
    32    20    15   ar
    33     6     1   ar
    34    28    23    1
    35    34    29   ar
    36    12    13    1
    37    21    22    1
    38     8    10    1
    39     8    11    1
@<TRIPOS>MOLECULE
*****
 36 39 0 0 0
SMALL
GASTEIGER

@<TRIPOS>ATOM
      1 C         142.9380  138.9734  167.4727 C.ar    1  UNL1        0.1345
      2 C         141.8010  139.8151  166.9740 C.ar    1  UNL1        0.0489
      3 C         140.7835  140.3487  167.9385 C.ar    1  UNL1        0.0533
      4 C         140.9031  140.0406  169.4016 C.ar    1  UNL1        0.0854
      5 C         142.0401  139.1989  169.9003 C.ar    1  UNL1        0.1060
      6 N         143.0576  138.6653  168.9359 N.ar    1  UNL1       -0.2288
      7 C         139.8857  140.5742  170.3660 C.2     1  UNL1        0.2455
      8 N         138.5596  139.8886  170.5128 N.am    1  UNL1       -0.3252
      9 O         140.1943  141.7933  171.1836 O.2     1  UNL1       -0.2703
     10 H         138.3570  139.0885  169.9762 H       1  UNL1        0.1453
     11 H         137.8918  140.2388  171.1458 H       1  UNL1        0.1453
     12 N         143.9554  138.4399  166.5083 N.pl3   1  UNL1       -0.2832
     13 H         144.5962  137.7515  166.7996 H       1  UNL1        0.1550
     14 C         145.7580  141.8312  163.0084 C.3     1  UNL1        0.0737
     15 C         144.8980  140.6508  163.3503 C.ar    1  UNL1        0.1410
     16 N         144.0791  139.9857  162.2840 N.ar    1  UNL1       -0.2291
     17 C         143.2190  138.8052  162.6258 C.ar    1  UNL1        0.1031
     18 C         143.1778  138.2900  164.0339 C.ar    1  UNL1        0.0551
     19 C         143.9966  138.9551  165.1002 C.ar    1  UNL1        0.1361
     20 N         144.8567  140.1355  164.7583 N.ar    1  UNL1       -0.2159
     21 N         139.6465  141.1904  167.4398 N.pl3   1  UNL1       -0.3337
     22 H         138.8469  141.3193  167.9996 H       1  UNL1        0.1468
     23 C         139.7276  141.8357  166.0881 C.3     1  UNL1        0.0724
     24 C         140.4276  143.1525  165.9265 C.3     1  UNL1        0.0410
     25 C         140.5087  143.7978  164.5747 C.3     1  UNL1        0.0939
     26 N         139.8899  143.1263  163.3847 N.pl3   1  UNL1       -0.2931
     27 C         139.1899  141.8095  163.5464 C.3     1  UNL1        0.0939
     28 C         139.1088  141.1643  164.8981 C.3     1  UNL1        0.0410
     29 C         139.9710  143.7716  162.0331 C.ar    1  UNL1        0.1317
     30 C         140.1736  145.2535  161.9205 C.ar    1  UNL1        0.0350
     31 C         140.2548  145.8989  160.5688 C.ar    1  UNL1        0.0147
     32 C         140.1333  145.0622  159.3297 C.ar    1  UNL1        0.0877
     33 C         139.9307  143.5802  159.4424 C.ar    1  UNL1        0.1105
     34 N         139.8496  142.9349  160.7940 N.ar    1  UNL1       -0.2285
     35 C         140.2144  145.7075  157.9781 C.1     1  UNL1        0.1020
     36 N         140.2956  146.3528  156.6264 N.1     1  UNL1       -0.1908
@<TRIPOS>BOND
     1    14    15    1
     2    15    16   ar
     3    16    17   ar
     4    17    18   ar
     5    18    19   ar
     6    19    12    1
     7    12     1    1
     8     1     2   ar
     9     2     3   ar
    10     3    21    1
    11    21    23    1
    12    23    24    1
    13    24    25    1
    14    25    26    1
    15    26    29    1
    16    29    30   ar
    17    30    31   ar
    18    31    32   ar
    19    32    35    1
    20    35    36    3
    21    32    33   ar
    22    33    34   ar
    23    26    27    1
    24    27    28    1
    25     3     4   ar
    26     4     7    1
    27     7     8   am
    28     7     9    2
    29     4     5   ar
    30     5     6   ar
    31    19    20   ar
    32    20    15   ar
    33     6     1   ar
    34    28    23    1
    35    34    29   ar
    36    12    13    1
    37    21    22    1
    38     8    10    1
    39     8    11    1
@<TRIPOS>MOLECULE
*****
 36 39 0 0 0
SMALL
GASTEIGER

@<TRIPOS>ATOM
      1 C         142.8594  139.1535  167.5921 C.ar    1  UNL1        0.1345
      2 C         141.8191  140.1016  167.0737 C.ar    1  UNL1        0.0489
      3 C         140.8713  140.7689  168.0258 C.ar    1  UNL1        0.0533
      4 C         140.9640  140.4880  169.4964 C.ar    1  UNL1        0.0854
      5 C         142.0043  139.5399  170.0148 C.ar    1  UNL1        0.1060
      6 N         142.9520  138.8726  169.0627 N.ar    1  UNL1       -0.2288
      7 C         140.0162  141.1553  170.4485 C.2     1  UNL1        0.2455
      8 N         140.5305  142.1557  171.4408 N.am    1  UNL1       -0.3252
      9 O         138.5542  140.8222  170.4083 O.2     1  UNL1       -0.2703
     10 H         141.4901  142.3744  171.4672 H       1  UNL1        0.1453
     11 H         139.9085  142.5937  172.0657 H       1  UNL1        0.1453
     12 N         143.8071  138.4862  166.6400 N.pl3   1  UNL1       -0.2832
     13 H         144.4761  137.8478  166.9778 H       1  UNL1        0.1550
     14 C         141.5610  137.7998  162.0049 C.3     1  UNL1        0.0737
     15 C         142.6125  138.4484  162.8556 C.ar    1  UNL1        0.1410
     16 N         143.5924  139.4023  162.2395 N.ar    1  UNL1       -0.2291
     17 C         144.6439  140.0509  163.0902 C.ar    1  UNL1        0.1031
     18 C         144.7155  139.7455  164.5570 C.ar    1  UNL1        0.0551
     19 C         143.7356  138.7916  165.1731 C.ar    1  UNL1        0.1361
     20 N         142.6841  138.1430  164.3224 N.ar    1  UNL1       -0.2159
     21 N         139.8310  141.7171  167.5074 N.pl3   1  UNL1       -0.3337
     22 H         139.1206  142.0435  168.1057 H       1  UNL1        0.1468
     23 C         139.8731  142.1678  166.0773 C.3     1  UNL1        0.0724
     24 C         138.9810  141.5201  165.0602 C.3     1  UNL1        0.0410
     25 C         139.0231  141.9709  163.6301 C.3     1  UNL1        0.0939
     26 N         139.9574  143.0694  163.2172 N.pl3   1  UNL1       -0.2931
     27 C         140.8495  143.7171  164.2344 C.3     1  UNL1        0.0939
     28 C         140.8074  143.2663  165.6644 C.3     1  UNL1        0.0410
     29 C         139.9995  143.5201  161.7872 C.ar    1  UNL1        0.1317
     30 C         140.6578  144.8197  161.4296 C.ar    1  UNL1        0.0350
     31 C         140.6999  145.2705  159.9995 C.ar    1  UNL1        0.0147
     32 C         140.0838  144.4218  158.9271 C.ar    1  UNL1        0.0877
     33 C         139.4255  143.1222  159.2848 C.ar    1  UNL1        0.1105
     34 N         139.3834  142.6714  160.7148 N.ar    1  UNL1       -0.2285
     35 C         140.1259  144.8725  157.4971 C.1     1  UNL1        0.1020
     36 N         140.1680  145.3233  156.0670 N.1     1  UNL1       -0.1908
@<TRIPOS>BOND
     1    14    15    1
     2    15    16   ar
     3    16    17   ar
     4    17    18   ar
     5    18    19   ar
     6    19    12    1
     7    12     1    1
     8     1     2   ar
     9     2     3   ar
    10     3    21    1
    11    21    23    1
    12    23    24    1
    13    24    25    1
    14    25    26    1
    15    26    29    1
    16    29    30   ar
    17    30    31   ar
    18    31    32   ar
    19    32    35    1
    20    35    36    3
    21    32    33   ar
    22    33    34   ar
    23    26    27    1
    24    27    28    1
    25     3     4   ar
    26     4     7    1
    27     7     8   am
    28     7     9    2
    29     4     5   ar
    30     5     6   ar
    31    19    20   ar
    32    20    15   ar
    33     6     1   ar
    34    28    23    1
    35    34    29   ar
    36    12    13    1
    37    21    22    1
    38     8    10    1
    39     8    11    1
@<TRIPOS>MOLECULE
*****
 36 39 0 0 0
SMALL
GASTEIGER

@<TRIPOS>ATOM
      1 C         142.7015  139.1205  167.1706 C.ar    1  UNL1        0.1345
      2 C         141.3692  139.4323  166.5559 C.ar    1  UNL1        0.0489
      3 C         140.2334  139.8925  167.4210 C.ar    1  UNL1        0.0533
      4 C         140.4299  140.0409  168.9006 C.ar    1  UNL1        0.0854
      5 C         141.7622  139.7291  169.5153 C.ar    1  UNL1        0.1060
      6 N         142.8980  139.2689  168.6503 N.ar    1  UNL1       -0.2288
      7 C         139.2941  140.5010  169.7656 C.2     1  UNL1        0.2455
      8 N         139.4034  141.7908  170.5236 N.am    1  UNL1       -0.3252
      9 O         138.0490  139.6714  169.8726 O.2     1  UNL1       -0.2703
     10 H         140.2206  142.3353  170.4534 H       1  UNL1        0.1453
     11 H         138.6580  142.0928  171.0913 H       1  UNL1        0.1453
     12 N         143.8373  138.6604  166.3056 N.pl3   1  UNL1       -0.2832
     13 H         144.5654  138.1232  166.6938 H       1  UNL1        0.1550
     14 C         142.1845  137.8626  161.4444 C.3     1  UNL1        0.0737
     15 C         143.0374  138.6197  162.4186 C.ar    1  UNL1        0.1410
     16 N         143.9169  139.7351  161.9366 N.ar    1  UNL1       -0.2291
     17 C         144.7698  140.4923  162.9109 C.ar    1  UNL1        0.1031
     18 C         144.7433  140.1341  164.3672 C.ar    1  UNL1        0.0551
     19 C         143.8639  139.0187  164.8492 C.ar    1  UNL1        0.1361
     20 N         143.0109  138.2615  163.8750 N.ar    1  UNL1       -0.2159
     21 N         138.9011  140.2043  166.8063 N.pl3   1  UNL1       -0.3337
     22 H         138.0933  140.2292  167.3686 H       1  UNL1        0.1468
     23 C         138.7996  140.4782  165.3350 C.3     1  UNL1        0.0724
     24 C         139.0254  141.8662  164.8131 C.3     1  UNL1        0.0410
     25 C         138.9239  142.1400  163.3418 C.3     1  UNL1        0.0939
     26 N         138.5966  141.0258  162.3924 N.pl3   1  UNL1       -0.2931
     27 C         138.3708  139.6378  162.9143 C.3     1  UNL1        0.0939
     28 C         138.4723  139.3640  164.3856 C.3     1  UNL1        0.0410
     29 C         138.4951  141.2996  160.9211 C.ar    1  UNL1        0.1317
     30 C         137.9881  140.2355  159.9935 C.ar    1  UNL1        0.0350
     31 C         137.8866  140.5093  158.5221 C.ar    1  UNL1        0.0147
     32 C         138.2920  141.8472  157.9785 C.ar    1  UNL1        0.0877
     33 C         138.7991  142.9114  158.9062 C.ar    1  UNL1        0.1105
     34 N         138.9006  142.6376  160.3775 N.ar    1  UNL1       -0.2285
     35 C         138.1905  142.1210  156.5072 C.1     1  UNL1        0.1020
     36 N         138.0891  142.3948  155.0359 N.1     1  UNL1       -0.1908
@<TRIPOS>BOND
     1    14    15    1
     2    15    16   ar
     3    16    17   ar
     4    17    18   ar
     5    18    19   ar
     6    19    12    1
     7    12     1    1
     8     1     2   ar
     9     2     3   ar
    10     3    21    1
    11    21    23    1
    12    23    24    1
    13    24    25    1
    14    25    26    1
    15    26    29    1
    16    29    30   ar
    17    30    31   ar
    18    31    32   ar
    19    32    35    1
    20    35    36    3
    21    32    33   ar
    22    33    34   ar
    23    26    27    1
    24    27    28    1
    25     3     4   ar
    26     4     7    1
    27     7     8   am
    28     7     9    2
    29     4     5   ar
    30     5     6   ar
    31    19    20   ar
    32    20    15   ar
    33     6     1   ar
    34    28    23    1
    35    34    29   ar
    36    12    13    1
    37    21    22    1
    38     8    10    1
    39     8    11    1
@<TRIPOS>MOLECULE
*****
 36 39 0 0 0
SMALL
GASTEIGER

@<TRIPOS>ATOM
      1 C         142.6458  139.4830  167.1330 C.ar    1  UNL1        0.1345
      2 C         141.9143  140.6128  166.4709 C.ar    1  UNL1        0.0489
      3 C         141.5177  141.8195  167.2689 C.ar    1  UNL1        0.0533
      4 C         141.8526  141.8963  168.7290 C.ar    1  UNL1        0.0854
      5 C         142.5841  140.7665  169.3912 C.ar    1  UNL1        0.1060
      6 N         142.9808  139.5599  168.5932 N.ar    1  UNL1       -0.2288
      7 C         141.4559  143.1029  169.5270 C.2     1  UNL1        0.2455
      8 N         142.4040  143.6793  170.5364 N.am    1  UNL1       -0.3252
      9 O         140.1113  143.7331  169.3155 O.2     1  UNL1       -0.2703
     10 H         143.2866  143.2657  170.6753 H       1  UNL1        0.1453
     11 H         142.1437  144.4713  171.0602 H       1  UNL1        0.1453
     12 N         143.0425  138.2764  166.3351 N.pl3   1  UNL1       -0.2832
     13 H         143.5988  137.5757  166.7459 H       1  UNL1        0.1550
     14 C         143.8570  139.0468  161.2613 C.3     1  UNL1        0.0737
     15 C         142.9988  138.5227  162.3743 C.ar    1  UNL1        0.1410
     16 N         141.6898  137.8596  162.0635 N.ar    1  UNL1       -0.2291
     17 C         140.8316  137.3354  163.1766 C.ar    1  UNL1        0.1031
     18 C         141.2825  137.4743  164.6004 C.ar    1  UNL1        0.0551
     19 C         142.5915  138.1375  164.9112 C.ar    1  UNL1        0.1361
     20 N         143.4497  138.6616  163.7982 N.ar    1  UNL1       -0.2159
     21 N         140.7861  142.9492  166.6068 N.pl3   1  UNL1       -0.3337
     22 H         140.1651  143.5068  167.1291 H       1  UNL1        0.1468
     23 C         141.0007  143.2296  165.1489 C.3     1  UNL1        0.0724
     24 C         139.8468  143.1567  164.1933 C.3     1  UNL1        0.0410
     25 C         140.0615  143.4370  162.7354 C.3     1  UNL1        0.0939
     26 N         141.4301  143.7902  162.2332 N.pl3   1  UNL1       -0.2931
     27 C         142.5840  143.8630  163.1888 C.3     1  UNL1        0.0939
     28 C         142.3693  143.5827  164.6466 C.3     1  UNL1        0.0410
     29 C         141.6447  144.0705  160.7753 C.ar    1  UNL1        0.1317
     30 C         140.7974  145.0911  160.0752 C.ar    1  UNL1        0.0350
     31 C         141.0120  145.3714  158.6173 C.ar    1  UNL1        0.0147
     32 C         142.0741  144.6311  157.8596 C.ar    1  UNL1        0.0877
     33 C         142.9215  143.6105  158.5599 C.ar    1  UNL1        0.1105
     34 N         142.7068  143.3302  160.0177 N.ar    1  UNL1       -0.2285
     35 C         142.2888  144.9114  156.4018 C.1     1  UNL1        0.1020
     36 N         142.5035  145.1918  154.9439 N.1     1  UNL1       -0.1908
@<TRIPOS>BOND
     1    14    15    1
     2    15    16   ar
     3    16    17   ar
     4    17    18   ar
     5    18    19   ar
     6    19    12    1
     7    12     1    1
     8     1     2   ar
     9     2     3   ar
    10     3    21    1
    11    21    23    1
    12    23    24    1
    13    24    25    1
    14    25    26    1
    15    26    29    1
    16    29    30   ar
    17    30    31   ar
    18    31    32   ar
    19    32    35    1
    20    35    36    3
    21    32    33   ar
    22    33    34   ar
    23    26    27    1
    24    27    28    1
    25     3     4   ar
    26     4     7    1
    27     7     8   am
    28     7     9    2
    29     4     5   ar
    30     5     6   ar
    31    19    20   ar
    32    20    15   ar
    33     6     1   ar
    34    28    23    1
    35    34    29   ar
    36    12    13    1
    37    21    22    1
    38     8    10    1
    39     8    11    1
@<TRIPOS>MOLECULE
*****
 36 39 0 0 0
SMALL
GASTEIGER

@<TRIPOS>ATOM
      1 C         141.0932  143.4224  158.7890 C.ar    1  UNL1        0.1345
      2 C         142.0713  143.2067  159.9056 C.ar    1  UNL1        0.0489
      3 C         143.4899  142.8289  159.5976 C.ar    1  UNL1        0.0533
      4 C         143.9304  142.6668  158.1730 C.ar    1  UNL1        0.0854
      5 C         142.9524  142.8825  157.0563 C.ar    1  UNL1        0.1060
      6 N         141.5338  143.2603  157.3643 N.ar    1  UNL1       -0.2288
      7 C         145.3490  142.2890  157.8650 C.2     1  UNL1        0.2455
      8 N         145.6364  141.1246  156.9640 N.am    1  UNL1       -0.3252
      9 O         146.4803  143.0755  158.4580 O.2     1  UNL1       -0.2703
     10 H         144.8939  140.6083  156.5748 H       1  UNL1        0.1453
     11 H         146.5674  140.8766  156.7619 H       1  UNL1        0.1453
     12 N         139.6747  143.8002  159.0969 N.pl3   1  UNL1       -0.2832
     13 H         139.2180  144.4827  158.5538 H       1  UNL1        0.1550
     14 C         137.5940  144.0327  163.8527 C.3     1  UNL1        0.0737
     15 C         137.9115  143.2545  162.6103 C.ar    1  UNL1        0.1410
     16 N         137.5061  141.8143  162.5033 N.ar    1  UNL1       -0.2291
     17 C         137.8236  141.0360  161.2609 C.ar    1  UNL1        0.1031
     18 C         138.5464  141.6980  160.1255 C.ar    1  UNL1        0.0551
     19 C         138.9518  143.1382  160.2324 C.ar    1  UNL1        0.1361
     20 N         138.6343  143.9164  161.4748 N.ar    1  UNL1       -0.2159
     21 N         144.4679  142.6132  160.7142 N.pl3   1  UNL1       -0.3337
     22 H         145.4262  142.5064  160.5155 H       1  UNL1        0.1468
     23 C         143.9859  142.5604  162.1337 C.3     1  UNL1        0.0724
     24 C         144.1162  143.7669  163.0155 C.3     1  UNL1        0.0410
     25 C         143.6341  143.7140  164.4350 C.3     1  UNL1        0.0939
     26 N         143.0217  142.4547  164.9727 N.pl3   1  UNL1       -0.2931
     27 C         142.8915  141.2482  164.0909 C.3     1  UNL1        0.0939
     28 C         143.3735  141.3011  162.6715 C.3     1  UNL1        0.0410
     29 C         142.5397  142.4018  166.3921 C.ar    1  UNL1        0.1317
     30 C         141.0751  142.2571  166.6818 C.ar    1  UNL1        0.0350
     31 C         140.5930  142.2042  168.1013 C.ar    1  UNL1        0.0147
     32 C         141.5755  142.2961  169.2310 C.ar    1  UNL1        0.0877
     33 C         143.0401  142.4408  168.9412 C.ar    1  UNL1        0.1105
     34 N         143.5222  142.4937  167.5218 N.ar    1  UNL1       -0.2285
     35 C         141.0934  142.2432  170.6504 C.1     1  UNL1        0.1020
     36 N         140.6113  142.1904  172.0698 N.1     1  UNL1       -0.1908
@<TRIPOS>BOND
     1    14    15    1
     2    15    16   ar
     3    16    17   ar
     4    17    18   ar
     5    18    19   ar
     6    19    12    1
     7    12     1    1
     8     1     2   ar
     9     2     3   ar
    10     3    21    1
    11    21    23    1
    12    23    24    1
    13    24    25    1
    14    25    26    1
    15    26    29    1
    16    29    30   ar
    17    30    31   ar
    18    31    32   ar
    19    32    35    1
    20    35    36    3
    21    32    33   ar
    22    33    34   ar
    23    26    27    1
    24    27    28    1
    25     3     4   ar
    26     4     7    1
    27     7     8   am
    28     7     9    2
    29     4     5   ar
    30     5     6   ar
    31    19    20   ar
    32    20    15   ar
    33     6     1   ar
    34    28    23    1
    35    34    29   ar
    36    12    13    1
    37    21    22    1
    38     8    10    1
    39     8    11    1
@<TRIPOS>MOLECULE
*****
 36 39 0 0 0
SMALL
GASTEIGER

@<TRIPOS>ATOM
      1 C         141.2717  140.4503  157.5697 C.ar    1  UNL1        0.1345
      2 C         140.2075  140.0420  158.5447 C.ar    1  UNL1        0.0489
      3 C         138.7734  140.3937  158.2804 C.ar    1  UNL1        0.0533
      4 C         138.4036  141.1537  157.0412 C.ar    1  UNL1        0.0854
      5 C         139.4679  141.5620  156.0662 C.ar    1  UNL1        0.1060
      6 N         140.9019  141.2103  156.3304 N.ar    1  UNL1       -0.2288
      7 C         136.9696  141.5053  156.7770 C.2     1  UNL1        0.2455
      8 N         136.6032  142.9001  156.3639 N.am    1  UNL1       -0.3252
      9 O         135.9019  140.4623  156.9258 O.2     1  UNL1       -0.2703
     10 H         137.3039  143.5846  156.2662 H       1  UNL1        0.1453
     11 H         135.6620  143.1309  156.1905 H       1  UNL1        0.1453
     12 N         142.7058  140.0987  157.8339 N.pl3   1  UNL1       -0.2832
     13 H         143.3769  140.2000  157.1208 H       1  UNL1        0.1550
     14 C         144.7290  140.9682  162.5403 C.3     1  UNL1        0.0737
     15 C         144.1289  140.0274  161.5379 C.ar    1  UNL1        0.1410
     16 N         143.9404  138.5807  161.8862 N.ar    1  UNL1       -0.2291
     17 C         143.3403  137.6400  160.8838 C.ar    1  UNL1        0.1031
     18 C         142.9288  138.1459  159.5331 C.ar    1  UNL1        0.0551
     19 C         143.1173  139.5926  159.1847 C.ar    1  UNL1        0.1361
     20 N         143.7174  140.5334  160.1871 N.ar    1  UNL1       -0.2159
     21 N         137.7091  139.9854  159.2554 N.pl3   1  UNL1       -0.3337
     22 H         136.8273  139.6943  158.9283 H       1  UNL1        0.1468
     23 C         137.9883  140.0206  160.7288 C.3     1  UNL1        0.0724
     24 C         138.1139  141.3368  161.4371 C.3     1  UNL1        0.0410
     25 C         138.3931  141.3721  162.9105 C.3     1  UNL1        0.0939
     26 N         138.5467  140.0910  163.6755 N.pl3   1  UNL1       -0.2931
     27 C         138.4212  138.7747  162.9672 C.3     1  UNL1        0.0939
     28 C         138.1420  138.7396  161.4938 C.3     1  UNL1        0.0410
     29 C         138.8259  140.1262  165.1489 C.ar    1  UNL1        0.1317
     30 C         138.1293  139.1665  166.0673 C.ar    1  UNL1        0.0350
     31 C         138.4085  139.2016  167.5407 C.ar    1  UNL1        0.0147
     32 C         139.3843  140.1965  168.0956 C.ar    1  UNL1        0.0877
     33 C         140.0809  141.1563  167.1771 C.ar    1  UNL1        0.1105
     34 N         139.8017  141.1211  165.7038 N.ar    1  UNL1       -0.2285
     35 C         139.6635  140.2317  169.5689 C.1     1  UNL1        0.1020
     36 N         139.9427  140.2670  171.0424 N.1     1  UNL1       -0.1908
@<TRIPOS>BOND
     1    14    15    1
     2    15    16   ar
     3    16    17   ar
     4    17    18   ar
     5    18    19   ar
     6    19    12    1
     7    12     1    1
     8     1     2   ar
     9     2     3   ar
    10     3    21    1
    11    21    23    1
    12    23    24    1
    13    24    25    1
    14    25    26    1
    15    26    29    1
    16    29    30   ar
    17    30    31   ar
    18    31    32   ar
    19    32    35    1
    20    35    36    3
    21    32    33   ar
    22    33    34   ar
    23    26    27    1
    24    27    28    1
    25     3     4   ar
    26     4     7    1
    27     7     8   am
    28     7     9    2
    29     4     5   ar
    30     5     6   ar
    31    19    20   ar
    32    20    15   ar
    33     6     1   ar
    34    28    23    1
    35    34    29   ar
    36    12    13    1
    37    21    22    1
    38     8    10    1
    39     8    11    1
