@<TRIPOS>MOLECULE
*****
 29 32 0 0 0
SMALL
GASTEIGER

@<TRIPOS>ATOM
      1 C         140.7973  138.7943  164.0965 C.2     1  UNL1        0.1157
      2 N         140.0667  138.9253  165.4000 N.2     1  UNL1       -0.1790
      3 N         140.7335  140.0059  166.1984 N.pl3   1  UNL1       -0.2060
      4 C         140.4477  140.5704  167.5585 C.ar    1  UNL1        0.1052
      5 C         139.3050  140.0335  168.3684 C.ar    1  UNL1        0.0490
      6 C         139.0193  140.5980  169.7284 C.ar    1  UNL1        0.1416
      7 F         137.8766  140.0611  170.5385 F       1  UNL1       -0.2041
      8 C         139.8762  141.6995  170.2785 C.ar    1  UNL1        0.0328
      9 C         141.0188  142.2364  169.4686 C.ar    1  UNL1        0.0405
     10 C         141.3046  141.6719  168.1086 C.ar    1  UNL1        0.1537
     11 O         142.4473  142.2088  167.2986 O.3     1  UNL1       -0.4723
     12 C         142.7330  141.6443  165.9386 C.3     1  UNL1        0.2277
     13 C         141.8761  140.5429  165.3885 C.3     1  UNL1        0.1488
     14 C         141.9156  139.7940  164.0894 C.3     1  UNL1        0.0806
     15 C         143.0936  140.6757  163.7980 C.ar    1  UNL1       -0.0157
     16 C         142.9186  141.9092  162.9626 C.ar    1  UNL1       -0.0039
     17 C         144.0967  142.7910  162.6711 C.ar    1  UNL1       -0.0003
     18 C         145.4496  142.4392  163.2151 C.ar    1  UNL1       -0.0000
     19 C         145.6245  141.2058  164.0505 C.ar    1  UNL1       -0.0003
     20 C         144.4465  140.3240  164.3420 C.ar    1  UNL1       -0.0039
     21 C         139.5002  138.2281  161.9177 C.3     1  UNL1        0.0786
     22 C         140.4676  137.8324  162.9937 C.2     1  UNL1        0.1887
     23 O         141.1052  136.4750  162.9669 O.2     1  UNL1       -0.2900
     24 C         142.2014  139.2295  162.7293 C.3     1  UNL1        0.0130
     25 C         143.4991  138.5243  162.4676 C.3     1  UNL1        0.0176
     26 C         143.8027  137.9969  161.0966 C.3     1  UNL1        0.0652
     27 N         143.0016  136.8592  160.5362 N.3     1  UNL1       -0.3211
     28 H         143.1761  136.0175  161.0853 H       1  UNL1        0.1189
     29 H         143.2750  136.6957  159.5672 H       1  UNL1        0.1189
@<TRIPOS>BOND
     1    21    22    1
     2    22    23    2
     3    22     1    1
     4     1     2    2
     5     2     3    1
     6     3     4    1
     7     4     5   ar
     8     5     6   ar
     9     6     7    1
    10     6     8   ar
    11     8     9   ar
    12     9    10   ar
    13    10    11    1
    14    11    12    1
    15    13    12    1
    16    13    14    1
    17    14    24    1
    18    24    25    1
    19    25    26    1
    20    26    27    1
    21    14    15    1
    22    15    16   ar
    23    16    17   ar
    24    17    18   ar
    25    18    19   ar
    26    19    20   ar
    27    14     1    1
    28    20    15   ar
    29    13     3    1
    30    10     4   ar
    31    27    28    1
    32    27    29    1
@<TRIPOS>MOLECULE
*****
 29 32 0 0 0
SMALL
GASTEIGER

@<TRIPOS>ATOM
      1 C         143.8973  141.7034  164.2956 C.2     1  UNL1        0.1157
      2 N         143.9273  142.2303  165.6997 N.2     1  UNL1       -0.1790
      3 N         142.8696  141.5143  166.4861 N.pl3   1  UNL1       -0.2060
      4 C         142.4407  141.6199  167.9197 C.ar    1  UNL1        0.1052
      5 C         143.1245  142.5893  168.8376 C.ar    1  UNL1        0.0490
      6 C         142.6956  142.6948  170.2711 C.ar    1  UNL1        0.1416
      7 F         143.3794  143.6643  171.1891 F       1  UNL1       -0.2041
      8 C         141.5829  141.8310  170.7866 C.ar    1  UNL1        0.0328
      9 C         140.8992  140.8616  169.8686 C.ar    1  UNL1        0.0405
     10 C         141.3281  140.7561  168.4352 C.ar    1  UNL1        0.1537
     11 O         140.6443  139.7866  167.5171 O.3     1  UNL1       -0.4723
     12 C         141.0732  139.6811  166.0837 C.3     1  UNL1        0.2277
     13 C         142.1858  140.5449  165.5682 C.3     1  UNL1        0.1488
     14 C         142.8210  140.6618  164.2143 C.3     1  UNL1        0.0806
     15 C         141.8344  139.5981  163.8333 C.ar    1  UNL1       -0.0157
     16 C         142.0887  138.1691  164.2117 C.ar    1  UNL1       -0.0039
     17 C         141.1020  137.1053  163.8308 C.ar    1  UNL1       -0.0003
     18 C         139.8611  137.4707  163.0714 C.ar    1  UNL1       -0.0000
     19 C         139.6068  138.8997  162.6930 C.ar    1  UNL1       -0.0003
     20 C         140.5934  139.9634  163.0740 C.ar    1  UNL1       -0.0039
     21 C         144.2841  143.1237  162.1548 C.3     1  UNL1        0.0786
     22 C         144.7874  142.1412  163.1703 C.2     1  UNL1        0.1887
     23 O         146.1807  141.5965  163.0607 O.2     1  UNL1       -0.2900
     24 C         143.2499  140.5562  162.7808 C.3     1  UNL1        0.0130
     25 C         143.9907  139.3409  162.3071 C.3     1  UNL1        0.0176
     26 C         143.7188  138.7816  160.9421 C.3     1  UNL1        0.0652
     27 N         143.2754  137.3567  160.7901 N.3     1  UNL1       -0.3211
     28 H         144.0277  136.7334  161.0832 H       1  UNL1        0.1189
     29 H         143.0444  137.1749  159.8134 H       1  UNL1        0.1189
@<TRIPOS>BOND
     1    21    22    1
     2    22    23    2
     3    22     1    1
     4     1     2    2
     5     2     3    1
     6     3     4    1
     7     4     5   ar
     8     5     6   ar
     9     6     7    1
    10     6     8   ar
    11     8     9   ar
    12     9    10   ar
    13    10    11    1
    14    11    12    1
    15    13    12    1
    16    13    14    1
    17    14    24    1
    18    24    25    1
    19    25    26    1
    20    26    27    1
    21    14    15    1
    22    15    16   ar
    23    16    17   ar
    24    17    18   ar
    25    18    19   ar
    26    19    20   ar
    27    14     1    1
    28    20    15   ar
    29    13     3    1
    30    10     4   ar
    31    27    28    1
    32    27    29    1
@<TRIPOS>MOLECULE
*****
 29 32 0 0 0
SMALL
GASTEIGER

@<TRIPOS>ATOM
      1 C         140.4784  142.2190  167.1199 C.2     1  UNL1        0.1157
      2 N         140.3133  143.3875  166.1938 N.2     1  UNL1       -0.1790
      3 N         140.3251  142.8687  164.7865 N.pl3   1  UNL1       -0.2060
      4 C         140.2012  143.5599  163.4609 C.ar    1  UNL1        0.1052
      5 C         140.0287  145.0489  163.4048 C.ar    1  UNL1        0.0490
      6 C         139.9048  145.7400  162.0793 C.ar    1  UNL1        0.1416
      7 F         139.7323  147.2290  162.0230 F       1  UNL1       -0.2041
      8 C         139.9533  144.9422  160.8100 C.ar    1  UNL1        0.0328
      9 C         140.1257  143.4532  160.8662 C.ar    1  UNL1        0.0405
     10 C         140.2497  142.7621  162.1916 C.ar    1  UNL1        0.1537
     11 O         140.4221  141.2730  162.2479 O.3     1  UNL1       -0.4723
     12 C         140.5461  140.5819  163.5734 C.3     1  UNL1        0.2277
     13 C         140.4976  141.3797  164.8426 C.3     1  UNL1        0.1488
     14 C         140.5923  140.9782  166.2848 C.3     1  UNL1        0.0806
     15 C         140.7321  139.5929  165.7268 C.ar    1  UNL1       -0.0157
     16 C         139.5219  138.7199  165.5750 C.ar    1  UNL1       -0.0039
     17 C         139.6616  137.3345  165.0170 C.ar    1  UNL1       -0.0003
     18 C         141.0117  136.8222  164.6109 C.ar    1  UNL1       -0.0000
     19 C         142.2219  137.6952  164.7627 C.ar    1  UNL1       -0.0003
     20 C         142.0822  139.0806  165.3207 C.ar    1  UNL1       -0.0039
     21 C         141.6467  142.9951  169.3069 C.3     1  UNL1        0.0786
     22 C         140.5220  142.2807  168.6180 C.2     1  UNL1        0.1887
     23 O         139.4408  141.6278  169.4272 O.2     1  UNL1       -0.2900
     24 C         140.7163  140.2870  167.6103 C.3     1  UNL1        0.0130
     25 C         142.0191  139.6608  168.0107 C.3     1  UNL1        0.0176
     26 C         142.2725  139.3097  169.4468 C.3     1  UNL1        0.0652
     27 N         141.1309  139.2560  170.4184 N.3     1  UNL1       -0.3211
     28 H         140.7415  140.1912  170.5375 H       1  UNL1        0.1189
     29 H         141.4658  138.9101  171.3177 H       1  UNL1        0.1189
@<TRIPOS>BOND
     1    21    22    1
     2    22    23    2
     3    22     1    1
     4     1     2    2
     5     2     3    1
     6     3     4    1
     7     4     5   ar
     8     5     6   ar
     9     6     7    1
    10     6     8   ar
    11     8     9   ar
    12     9    10   ar
    13    10    11    1
    14    11    12    1
    15    13    12    1
    16    13    14    1
    17    14    24    1
    18    24    25    1
    19    25    26    1
    20    26    27    1
    21    14    15    1
    22    15    16   ar
    23    16    17   ar
    24    17    18   ar
    25    18    19   ar
    26    19    20   ar
    27    14     1    1
    28    20    15   ar
    29    13     3    1
    30    10     4   ar
    31    27    28    1
    32    27    29    1
@<TRIPOS>MOLECULE
*****
 29 32 0 0 0
SMALL
GASTEIGER

@<TRIPOS>ATOM
      1 C         139.2512  141.1502  164.3916 C.2     1  UNL1        0.1157
      2 N         139.1641  140.7055  165.8216 N.2     1  UNL1       -0.1790
      3 N         140.4071  141.1626  166.5257 N.pl3   1  UNL1       -0.2060
      4 C         140.8706  141.0106  167.9442 C.ar    1  UNL1        0.1052
      5 C         140.0151  140.2834  168.9389 C.ar    1  UNL1        0.0490
      6 C         140.4786  140.1314  170.3573 C.ar    1  UNL1        0.1416
      7 F         139.6232  139.4042  171.3521 F       1  UNL1       -0.2041
      8 C         141.7975  140.7066  170.7811 C.ar    1  UNL1        0.0328
      9 C         142.6530  141.4338  169.7865 C.ar    1  UNL1        0.0405
     10 C         142.1895  141.5858  168.3680 C.ar    1  UNL1        0.1537
     11 O         143.0449  142.3130  167.3733 O.3     1  UNL1       -0.4723
     12 C         142.5814  142.4650  165.9548 C.3     1  UNL1        0.2277
     13 C         141.2625  141.8898  165.5311 C.3     1  UNL1        0.1488
     14 C         140.5482  141.8821  164.2121 C.3     1  UNL1        0.0806
     15 C         141.7482  142.6458  163.7360 C.ar    1  UNL1       -0.0157
     16 C         141.8660  144.1132  164.0239 C.ar    1  UNL1       -0.0039
     17 C         143.0660  144.8770  163.5478 C.ar    1  UNL1       -0.0003
     18 C         144.1483  144.1733  162.7838 C.ar    1  UNL1       -0.0000
     19 C         144.0305  142.7060  162.4959 C.ar    1  UNL1       -0.0003
     20 C         142.8304  141.9422  162.9720 C.ar    1  UNL1       -0.0039
     21 C         138.3040  139.6757  162.4736 C.3     1  UNL1        0.0786
     22 C         138.2221  140.9058  163.3280 C.2     1  UNL1        0.1887
     23 O         137.1111  141.8917  163.1188 O.2     1  UNL1       -0.2900
     24 C         140.0847  142.0341  162.7936 C.3     1  UNL1        0.0130
     25 C         139.8714  143.4022  162.2168 C.3     1  UNL1        0.0176
     26 C         139.4738  143.5562  160.7787 C.3     1  UNL1        0.0652
     27 N         138.1888  142.9581  160.2876 N.3     1  UNL1       -0.3211
     28 H         138.2448  141.9410  160.3412 H       1  UNL1        0.1189
     29 H         138.0308  143.2393  159.3199 H       1  UNL1        0.1189
@<TRIPOS>BOND
     1    21    22    1
     2    22    23    2
     3    22     1    1
     4     1     2    2
     5     2     3    1
     6     3     4    1
     7     4     5   ar
     8     5     6   ar
     9     6     7    1
    10     6     8   ar
    11     8     9   ar
    12     9    10   ar
    13    10    11    1
    14    11    12    1
    15    13    12    1
    16    13    14    1
    17    14    24    1
    18    24    25    1
    19    25    26    1
    20    26    27    1
    21    14    15    1
    22    15    16   ar
    23    16    17   ar
    24    17    18   ar
    25    18    19   ar
    26    19    20   ar
    27    14     1    1
    28    20    15   ar
    29    13     3    1
    30    10     4   ar
    31    27    28    1
    32    27    29    1
@<TRIPOS>MOLECULE
*****
 29 32 0 0 0
SMALL
GASTEIGER

@<TRIPOS>ATOM
      1 C         139.4549  143.1504  163.9301 C.2     1  UNL1        0.1157
      2 N         139.3575  143.0958  165.4259 N.2     1  UNL1       -0.1790
      3 N         140.7315  142.8408  165.9708 N.pl3   1  UNL1       -0.2060
      4 C         141.2431  142.6891  167.3728 C.ar    1  UNL1        0.1052
      5 C         140.2965  142.7921  168.5318 C.ar    1  UNL1        0.0490
      6 C         140.8080  142.6404  169.9336 C.ar    1  UNL1        0.1416
      7 F         139.8614  142.7434  171.0927 F       1  UNL1       -0.2041
      8 C         142.2662  142.3857  170.1765 C.ar    1  UNL1        0.0328
      9 C         143.2127  142.2827  169.0175 C.ar    1  UNL1        0.0405
     10 C         142.7012  142.4344  167.6156 C.ar    1  UNL1        0.1537
     11 O         143.6478  142.3314  166.4565 O.3     1  UNL1       -0.4723
     12 C         143.1362  142.4831  165.0547 C.3     1  UNL1        0.2277
     13 C         141.6781  142.7378  164.8118 C.3     1  UNL1        0.1488
     14 C         140.8891  142.9291  163.5505 C.3     1  UNL1        0.0806
     15 C         142.2163  142.7396  162.8779 C.ar    1  UNL1       -0.0157
     16 C         142.5467  141.4295  162.2266 C.ar    1  UNL1       -0.0039
     17 C         143.8741  141.2399  161.5539 C.ar    1  UNL1       -0.0003
     18 C         144.8709  142.3605  161.5326 C.ar    1  UNL1       -0.0000
     19 C         144.5405  143.6707  162.1840 C.ar    1  UNL1       -0.0003
     20 C         143.2132  143.8603  162.8567 C.ar    1  UNL1       -0.0039
     21 C         137.7035  142.2304  162.2458 C.3     1  UNL1        0.0786
     22 C         138.3176  143.3850  162.9805 C.2     1  UNL1        0.1887
     23 O         137.7945  144.7743  162.7655 O.2     1  UNL1       -0.2900
     24 C         140.3775  143.0808  162.1486 C.3     1  UNL1        0.0130
     25 C         141.0146  144.0726  161.2210 C.3     1  UNL1        0.0176
     26 C         140.4157  145.4381  161.0570 C.3     1  UNL1        0.0652
     27 N         140.3651  146.3799  162.2234 N.3     1  UNL1       -0.3211
     28 H         139.7405  146.0042  162.9369 H       1  UNL1        0.1189
     29 H         140.0192  147.2878  161.9126 H       1  UNL1        0.1189
@<TRIPOS>BOND
     1    21    22    1
     2    22    23    2
     3    22     1    1
     4     1     2    2
     5     2     3    1
     6     3     4    1
     7     4     5   ar
     8     5     6   ar
     9     6     7    1
    10     6     8   ar
    11     8     9   ar
    12     9    10   ar
    13    10    11    1
    14    11    12    1
    15    13    12    1
    16    13    14    1
    17    14    24    1
    18    24    25    1
    19    25    26    1
    20    26    27    1
    21    14    15    1
    22    15    16   ar
    23    16    17   ar
    24    17    18   ar
    25    18    19   ar
    26    19    20   ar
    27    14     1    1
    28    20    15   ar
    29    13     3    1
    30    10     4   ar
    31    27    28    1
    32    27    29    1
@<TRIPOS>MOLECULE
*****
 29 32 0 0 0
SMALL
GASTEIGER

@<TRIPOS>ATOM
      1 C         143.4040  140.8386  163.7760 C.2     1  UNL1        0.1157
      2 N         143.4993  140.1898  165.1251 N.2     1  UNL1       -0.1790
      3 N         142.3149  140.6277  165.9346 N.pl3   1  UNL1       -0.2060
      4 C         141.8829  140.3080  167.3351 C.ar    1  UNL1        0.1052
      5 C         142.7103  139.3887  168.1838 C.ar    1  UNL1        0.0490
      6 C         142.2783  139.0691  169.5842 C.ar    1  UNL1        0.1416
      7 F         143.1056  138.1497  170.4330 F       1  UNL1       -0.2041
      8 C         141.0189  139.6688  170.1359 C.ar    1  UNL1        0.0328
      9 C         140.1915  140.5881  169.2872 C.ar    1  UNL1        0.0405
     10 C         140.6236  140.9077  167.8868 C.ar    1  UNL1        0.1537
     11 O         139.7962  141.8271  167.0381 O.3     1  UNL1       -0.4723
     12 C         140.2282  142.1467  165.6377 C.3     1  UNL1        0.2277
     13 C         141.4876  141.5470  165.0860 C.3     1  UNL1        0.1488
     14 C         142.1607  141.6774  163.7518 C.3     1  UNL1        0.0806
     15 C         141.0077  142.5830  163.4348 C.ar    1  UNL1       -0.0157
     16 C         140.9846  143.9835  163.9714 C.ar    1  UNL1       -0.0039
     17 C         139.8315  144.8892  163.6545 C.ar    1  UNL1       -0.0003
     18 C         138.7017  144.3943  162.8010 C.ar    1  UNL1       -0.0000
     19 C         138.7248  142.9937  162.2644 C.ar    1  UNL1       -0.0003
     20 C         139.8778  142.0880  162.5813 C.ar    1  UNL1       -0.0039
     21 C         144.1146  139.6759  161.5638 C.3     1  UNL1        0.0786
     22 C         144.3805  140.6769  162.6489 C.2     1  UNL1        0.1887
     23 O         145.6231  141.5161  162.6069 O.2     1  UNL1       -0.2900
     24 C         142.5927  141.9970  162.3513 C.3     1  UNL1        0.0130
     25 C         142.9272  143.4096  161.9736 C.3     1  UNL1        0.0176
     26 C         142.5484  143.9338  160.6202 C.3     1  UNL1        0.0652
     27 N         141.7337  145.1878  160.5027 N.3     1  UNL1       -0.3211
     28 H         140.8038  145.0267  160.8897 H       1  UNL1        0.1189
     29 H         141.6524  145.4496  159.5202 H       1  UNL1        0.1189
@<TRIPOS>BOND
     1    21    22    1
     2    22    23    2
     3    22     1    1
     4     1     2    2
     5     2     3    1
     6     3     4    1
     7     4     5   ar
     8     5     6   ar
     9     6     7    1
    10     6     8   ar
    11     8     9   ar
    12     9    10   ar
    13    10    11    1
    14    11    12    1
    15    13    12    1
    16    13    14    1
    17    14    24    1
    18    24    25    1
    19    25    26    1
    20    26    27    1
    21    14    15    1
    22    15    16   ar
    23    16    17   ar
    24    17    18   ar
    25    18    19   ar
    26    19    20   ar
    27    14     1    1
    28    20    15   ar
    29    13     3    1
    30    10     4   ar
    31    27    28    1
    32    27    29    1
@<TRIPOS>MOLECULE
*****
 29 32 0 0 0
SMALL
GASTEIGER

@<TRIPOS>ATOM
      1 C         141.4457  139.1442  164.4039 C.2     1  UNL1        0.1157
      2 N         141.9870  139.0626  165.8005 N.2     1  UNL1       -0.1790
      3 N         141.5235  140.2771  166.5489 N.pl3   1  UNL1       -0.2060
      4 C         141.7483  140.7328  167.9602 C.ar    1  UNL1        0.1052
      5 C         142.5761  139.9006  168.8942 C.ar    1  UNL1        0.0490
      6 C         142.8008  140.3563  170.3055 C.ar    1  UNL1        0.1416
      7 F         143.6287  139.5241  171.2395 F       1  UNL1       -0.2041
      8 C         142.1978  141.6441  170.7828 C.ar    1  UNL1        0.0328
      9 C         141.3700  142.4763  169.8489 C.ar    1  UNL1        0.0405
     10 C         141.1453  142.0206  168.4376 C.ar    1  UNL1        0.1537
     11 O         140.3174  142.8527  167.5036 O.3     1  UNL1       -0.4723
     12 C         140.0927  142.3971  166.0923 C.3     1  UNL1        0.2277
     13 C         140.6957  141.1092  165.6149 C.3     1  UNL1        0.1488
     14 C         140.6476  140.4090  164.2893 C.3     1  UNL1        0.0806
     15 C         139.8026  141.5786  163.8795 C.ar    1  UNL1       -0.0157
     16 C         138.3530  141.6272  164.2622 C.ar    1  UNL1       -0.0039
     17 C         137.5079  142.7968  163.8525 C.ar    1  UNL1       -0.0003
     18 C         138.1124  143.9179  163.0601 C.ar    1  UNL1       -0.0000
     19 C         139.5619  143.8693  162.6774 C.ar    1  UNL1       -0.0003
     20 C         140.4070  142.6997  163.0872 C.ar    1  UNL1       -0.0039
     21 C         142.7729  138.3338  162.3226 C.3     1  UNL1        0.0786
     22 C         141.6641  138.1375  163.3135 C.2     1  UNL1        0.1887
     23 O         140.7736  136.9345  163.2140 O.2     1  UNL1       -0.2900
     24 C         140.4228  139.9534  162.8779 C.3     1  UNL1        0.0130
     25 C         139.0306  139.6812  162.3904 C.3     1  UNL1        0.0176
     26 C         138.8146  139.0982  161.0253 C.3     1  UNL1        0.0652
     27 N         139.2142  137.6801  160.7436 N.3     1  UNL1       -0.3211
     28 H         140.2285  137.5935  160.8075 H       1  UNL1        0.1189
     29 H         138.9093  137.4210  159.8053 H       1  UNL1        0.1189
@<TRIPOS>BOND
     1    21    22    1
     2    22    23    2
     3    22     1    1
     4     1     2    2
     5     2     3    1
     6     3     4    1
     7     4     5   ar
     8     5     6   ar
     9     6     7    1
    10     6     8   ar
    11     8     9   ar
    12     9    10   ar
    13    10    11    1
    14    11    12    1
    15    13    12    1
    16    13    14    1
    17    14    24    1
    18    24    25    1
    19    25    26    1
    20    26    27    1
    21    14    15    1
    22    15    16   ar
    23    16    17   ar
    24    17    18   ar
    25    18    19   ar
    26    19    20   ar
    27    14     1    1
    28    20    15   ar
    29    13     3    1
    30    10     4   ar
    31    27    28    1
    32    27    29    1
@<TRIPOS>MOLECULE
*****
 29 32 0 0 0
SMALL
GASTEIGER

@<TRIPOS>ATOM
      1 C         141.4104  140.1287  166.5856 C.2     1  UNL1        0.1157
      2 N         142.2100  139.3321  165.5976 N.2     1  UNL1       -0.1790
      3 N         141.9319  139.8781  164.2285 N.pl3   1  UNL1       -0.2060
      4 C         142.4377  139.4891  162.8710 C.ar    1  UNL1        0.1052
      5 C         143.4092  138.3550  162.7292 C.ar    1  UNL1        0.0490
      6 C         143.9150  137.9661  161.3718 C.ar    1  UNL1        0.1416
      7 F         144.8866  136.8320  161.2300 F       1  UNL1       -0.2041
      8 C         143.4494  138.7112  160.1560 C.ar    1  UNL1        0.0328
      9 C         142.4779  139.8452  160.2978 C.ar    1  UNL1        0.0405
     10 C         141.9721  140.2342  161.6553 C.ar    1  UNL1        0.1537
     11 O         141.0005  141.3683  161.7971 O.3     1  UNL1       -0.4723
     12 C         140.4947  141.7572  163.1545 C.3     1  UNL1        0.2277
     13 C         140.9604  141.0121  164.3703 C.3     1  UNL1        0.1488
     14 C         140.6381  141.1670  165.8270 C.3     1  UNL1        0.0806
     15 C         139.7600  142.2867  165.3523 C.ar    1  UNL1       -0.0157
     16 C         138.3231  142.0209  165.0138 C.ar    1  UNL1       -0.0039
     17 C         137.4449  143.1406  164.5390 C.ar    1  UNL1       -0.0003
     18 C         138.0038  144.5260  164.4028 C.ar    1  UNL1       -0.0000
     19 C         139.4407  144.7917  164.7413 C.ar    1  UNL1       -0.0003
     20 C         140.3189  143.6720  165.2161 C.ar    1  UNL1       -0.0039
     21 C         142.6482  140.0751  168.8692 C.3     1  UNL1        0.0786
     22 C         141.3872  139.9231  168.0713 C.2     1  UNL1        0.1887
     23 O         140.1030  139.5655  168.7590 O.2     1  UNL1       -0.2900
     24 C         140.1322  141.5560  167.1846 C.3     1  UNL1        0.0130
     25 C         140.5113  142.8820  167.7746 C.3     1  UNL1        0.0176
     26 C         140.5860  143.0464  169.2637 C.3     1  UNL1        0.0652
     27 N         140.1626  144.3382  169.8978 N.3     1  UNL1       -0.3211
     28 H         140.7992  145.0820  169.6118 H       1  UNL1        0.1189
     29 H         140.1859  144.2423  170.9130 H       1  UNL1        0.1189
@<TRIPOS>BOND
     1    21    22    1
     2    22    23    2
     3    22     1    1
     4     1     2    2
     5     2     3    1
     6     3     4    1
     7     4     5   ar
     8     5     6   ar
     9     6     7    1
    10     6     8   ar
    11     8     9   ar
    12     9    10   ar
    13    10    11    1
    14    11    12    1
    15    13    12    1
    16    13    14    1
    17    14    24    1
    18    24    25    1
    19    25    26    1
    20    26    27    1
    21    14    15    1
    22    15    16   ar
    23    16    17   ar
    24    17    18   ar
    25    18    19   ar
    26    19    20   ar
    27    14     1    1
    28    20    15   ar
    29    13     3    1
    30    10     4   ar
    31    27    28    1
    32    27    29    1
@<TRIPOS>MOLECULE
*****
 29 32 0 0 0
SMALL
GASTEIGER

@<TRIPOS>ATOM
      1 C         139.2314  142.4903  163.8577 C.2     1  UNL1        0.1157
      2 N         139.0414  141.9633  165.2492 N.2     1  UNL1       -0.1790
      3 N         140.3791  141.5214  165.7641 N.pl3   1  UNL1       -0.2060
      4 C         140.8027  140.9205  167.0717 C.ar    1  UNL1        0.1052
      5 C         139.7859  140.6667  168.1449 C.ar    1  UNL1        0.0490
      6 C         140.2096  140.0659  169.4523 C.ar    1  UNL1        0.1416
      7 F         139.1928  139.8120  170.5256 F       1  UNL1       -0.2041
      8 C         141.6500  139.7190  169.6867 C.ar    1  UNL1        0.0328
      9 C         142.6667  139.9728  168.6135 C.ar    1  UNL1        0.0405
     10 C         142.2431  140.5736  167.3060 C.ar    1  UNL1        0.1537
     11 O         143.2599  140.8275  166.2328 O.3     1  UNL1       -0.4723
     12 C         142.8362  141.4283  164.9253 C.3     1  UNL1        0.2277
     13 C         141.3958  141.7752  164.6910 C.3     1  UNL1        0.1488
     14 C         140.6865  142.3740  163.5127 C.3     1  UNL1        0.0806
     15 C         142.0531  142.3834  162.8944 C.ar    1  UNL1       -0.0157
     16 C         143.0173  143.4845  163.2227 C.ar    1  UNL1       -0.0039
     17 C         144.3839  143.4940  162.6044 C.ar    1  UNL1       -0.0003
     18 C         144.7863  142.4023  161.6577 C.ar    1  UNL1       -0.0000
     19 C         143.8221  141.3011  161.3293 C.ar    1  UNL1       -0.0003
     20 C         142.4554  141.2917  161.9477 C.ar    1  UNL1       -0.0039
     21 C         137.6290  144.4241  163.1921 C.3     1  UNL1        0.0786
     22 C         138.1551  143.0374  162.9676 C.2     1  UNL1        0.1887
     23 O         137.6050  142.1979  161.8529 O.2     1  UNL1       -0.2900
     24 C         140.2629  142.9749  162.2052 C.3     1  UNL1        0.0130
     25 C         140.7420  144.3425  161.8180 C.3     1  UNL1        0.0176
     26 C         140.6169  144.8066  160.3971 C.3     1  UNL1        0.0652
     27 N         141.7741  145.4840  159.7247 N.3     1  UNL1       -0.3211
     28 H         141.9565  146.3779  160.1808 H       1  UNL1        0.1189
     29 H         141.5509  145.6429  158.7422 H       1  UNL1        0.1189
@<TRIPOS>BOND
     1    21    22    1
     2    22    23    2
     3    22     1    1
     4     1     2    2
     5     2     3    1
     6     3     4    1
     7     4     5   ar
     8     5     6   ar
     9     6     7    1
    10     6     8   ar
    11     8     9   ar
    12     9    10   ar
    13    10    11    1
    14    11    12    1
    15    13    12    1
    16    13    14    1
    17    14    24    1
    18    24    25    1
    19    25    26    1
    20    26    27    1
    21    14    15    1
    22    15    16   ar
    23    16    17   ar
    24    17    18   ar
    25    18    19   ar
    26    19    20   ar
    27    14     1    1
    28    20    15   ar
    29    13     3    1
    30    10     4   ar
    31    27    28    1
    32    27    29    1
