@<TRIPOS>MOLECULE
*****
 33 38 0 0 0
SMALL
GASTEIGER

@<TRIPOS>ATOM
      1 C         142.5800  136.7217  157.7585 C.3     1  UNL1        0.1161
      2 C         143.3075  135.4241  157.5655 C.3     1  UNL1        0.0510
      3 C         142.9636  134.5367  156.4062 C.2     1  UNL1       -0.0044
      4 C         141.8923  134.9467  155.4398 C.2     1  UNL1        0.0689
      5 N         141.7719  133.8737  154.3986 N.2     1  UNL1       -0.2526
      6 C         142.7688  132.8004  154.7215 C.2     1  UNL1        0.0627
      7 C         143.1011  131.5030  154.0461 C.3     1  UNL1        0.0717
      8 C         144.1699  130.6154  154.6114 C.2     1  UNL1       -0.0198
      9 C         144.9064  131.0251  155.8522 C.2     1  UNL1       -0.0042
     10 C         144.5742  132.3226  156.5277 C.2     1  UNL1        0.0006
     11 C         143.5054  133.2102  155.9623 C.2     1  UNL1        0.0111
     12 C         141.1648  136.2443  155.6327 C.3     1  UNL1        0.0949
     13 N         141.5086  137.1317  156.7920 N.3     1  UNL1       -0.2887
     14 H         140.6532  137.2523  157.3344 H       1  UNL1        0.1239
     15 C         143.2348  138.4377  161.1778 C.ar    1  UNL1        0.0791
     16 C         143.6714  139.5118  160.2262 C.ar    1  UNL1        0.1172
     17 N         143.4792  138.9997  158.8295 N.ar    1  UNL1       -0.2282
     18 C         142.9239  137.6092  158.9179 C.ar    1  UNL1        0.1318
     19 N         142.7728  137.2617  160.3692 N.ar    1  UNL1       -0.3396
     20 H         142.4305  136.4113  160.7281 H       1  UNL1        0.1671
     21 F         140.9771  137.2815  162.7799 F       1  UNL1       -0.2041
     22 C         142.1276  137.9462  163.4762 C.ar    1  UNL1        0.1415
     23 C         142.1492  138.0327  164.9736 C.ar    1  UNL1        0.0297
     24 C         143.2996  138.6974  165.6699 C.ar    1  UNL1        0.0023
     25 C         144.4284  139.2754  164.8689 C.ar    1  UNL1        0.0002
     26 C         144.4067  139.1888  163.3716 C.ar    1  UNL1        0.0037
     27 C         143.2563  138.5242  162.6752 C.ar    1  UNL1        0.0446
     28 C         140.0934  136.6543  154.6662 C.3     1  UNL1        0.0252
     29 C         138.7799  137.1683  155.1764 C.3     1  UNL1        0.0339
     30 C         137.7085  137.5784  154.2099 C.3     1  UNL1        0.1422
     31 O         137.9507  137.4744  152.7333 O.3     1  UNL1       -0.3538
     32 C         139.2643  136.9604  152.2231 C.3     1  UNL1        0.1422
     33 C         140.3356  136.5504  153.1895 C.3     1  UNL1        0.0339
@<TRIPOS>BOND
     1    21    22    1
     2    22    23   ar
     3    23    24   ar
     4    24    25   ar
     5    25    26   ar
     6    26    27   ar
     7    27    15    1
     8    15    16   ar
     9    16    17   ar
    10    17    18   ar
    11     1    18    1
    12     1     2    1
    13     2     3    1
    14     3     4    2
    15     4     5    1
    16     5     6    2
    17     6     7    1
    18     7     8    1
    19     8     9    2
    20     9    10    1
    21    10    11    2
    22     4    12    1
    23    12    28    1
    24    28    29    1
    25    29    30    1
    26    30    31    1
    27    31    32    1
    28    32    33    1
    29    12    13    1
    30    18    19   ar
    31    27    22   ar
    32    19    15   ar
    33    13     1    1
    34    11     3    1
    35    33    28    1
    36    11     6    1
    37    13    14    1
    38    19    20    1
@<TRIPOS>MOLECULE
*****
 33 38 0 0 0
SMALL
GASTEIGER

@<TRIPOS>ATOM
      1 C         143.1479  139.2807  158.0416 C.3     1  UNL1        0.1161
      2 C         142.3601  140.4564  157.5445 C.3     1  UNL1        0.0510
      3 C         142.1960  141.6697  158.4110 C.2     1  UNL1       -0.0044
      4 C         142.8196  141.7073  159.7747 C.2     1  UNL1        0.0689
      5 N         142.4896  143.0308  160.3989 N.2     1  UNL1       -0.2526
      6 C         141.6621  143.8111  159.4209 C.2     1  UNL1        0.0627
      7 C         141.0504  145.1789  159.4905 C.3     1  UNL1        0.0717
      8 C         140.2572  145.7055  158.3314 C.2     1  UNL1       -0.0198
      9 C         140.0757  144.8643  157.1028 C.2     1  UNL1       -0.0042
     10 C         140.6874  143.4965  157.0333 C.2     1  UNL1        0.0006
     11 C         141.4806  142.9699  158.1923 C.2     1  UNL1        0.0111
     12 C         143.6073  140.5316  160.2719 C.3     1  UNL1        0.0949
     13 N         143.7715  139.3183  159.4053 N.3     1  UNL1       -0.2887
     14 H         143.3874  138.5301  159.9266 H       1  UNL1        0.1239
     15 C         143.1150  135.8122  156.2998 C.ar    1  UNL1        0.0791
     16 C         144.0139  136.5882  155.3835 C.ar    1  UNL1        0.1172
     17 N         144.1357  137.9819  155.9244 N.ar    1  UNL1       -0.2282
     18 C         143.3120  138.0673  157.1750 C.ar    1  UNL1        0.1318
     19 N         142.6811  136.7264  157.4071 N.ar    1  UNL1       -0.3396
     20 H         142.0867  136.4881  158.1549 H       1  UNL1        0.1671
     21 F         144.4970  133.6858  157.9025 F       1  UNL1       -0.2041
     22 C         143.4103  133.3113  156.9387 C.ar    1  UNL1        0.1415
     23 C         143.0147  131.8736  156.7763 C.ar    1  UNL1        0.0297
     24 C         141.9280  131.4990  155.8126 C.ar    1  UNL1        0.0023
     25 C         141.2370  132.5622  155.0112 C.ar    1  UNL1        0.0002
     26 C         141.6327  133.9999  155.1736 C.ar    1  UNL1        0.0037
     27 C         142.7193  134.3744  156.1374 C.ar    1  UNL1        0.0446
     28 C         144.2309  140.5692  161.6356 C.3     1  UNL1        0.0252
     29 C         145.0588  141.7495  162.0494 C.3     1  UNL1        0.0339
     30 C         145.6824  141.7870  163.4131 C.3     1  UNL1        0.1422
     31 O         145.4781  140.6443  164.3630 O.3     1  UNL1       -0.3538
     32 C         144.6501  139.4639  163.9492 C.3     1  UNL1        0.1422
     33 C         144.0266  139.4264  162.5855 C.3     1  UNL1        0.0339
@<TRIPOS>BOND
     1    21    22    1
     2    22    23   ar
     3    23    24   ar
     4    24    25   ar
     5    25    26   ar
     6    26    27   ar
     7    27    15    1
     8    15    16   ar
     9    16    17   ar
    10    17    18   ar
    11     1    18    1
    12     1     2    1
    13     2     3    1
    14     3     4    2
    15     4     5    1
    16     5     6    2
    17     6     7    1
    18     7     8    1
    19     8     9    2
    20     9    10    1
    21    10    11    2
    22     4    12    1
    23    12    28    1
    24    28    29    1
    25    29    30    1
    26    30    31    1
    27    31    32    1
    28    32    33    1
    29    12    13    1
    30    18    19   ar
    31    27    22   ar
    32    19    15   ar
    33    13     1    1
    34    11     3    1
    35    33    28    1
    36    11     6    1
    37    13    14    1
    38    19    20    1
@<TRIPOS>MOLECULE
*****
 33 38 0 0 0
SMALL
GASTEIGER

@<TRIPOS>ATOM
      1 C         143.2363  142.9695  157.4103 C.3     1  UNL1        0.1161
      2 C         143.3017  143.2484  158.8827 C.3     1  UNL1        0.0510
      3 C         142.1420  143.9011  159.5747 C.2     1  UNL1       -0.0044
      4 C         140.9167  144.2749  158.7943 C.2     1  UNL1        0.0689
      5 N         139.9372  144.9019  159.7416 N.2     1  UNL1       -0.2526
      6 C         140.5571  144.9157  161.1075 C.2     1  UNL1        0.0627
      7 C         140.0568  145.4115  162.4318 C.3     1  UNL1        0.0717
      8 C         140.9191  145.2887  163.6530 C.2     1  UNL1       -0.0198
      9 C         142.2818  144.6702  163.5498 C.2     1  UNL1       -0.0042
     10 C         142.7820  144.1744  162.2255 C.2     1  UNL1        0.0006
     11 C         141.9197  144.2971  161.0044 C.2     1  UNL1        0.0111
     12 C         140.8513  143.9960  157.3219 C.3     1  UNL1        0.0949
     13 N         142.0111  143.3433  156.6299 N.3     1  UNL1       -0.2887
     14 H         142.3136  143.9831  155.8954 H       1  UNL1        0.1239
     15 C         146.5147  141.9804  155.5830 C.ar    1  UNL1        0.0791
     16 C         145.8472  140.6446  155.7241 C.ar    1  UNL1        0.1172
     17 N         144.5379  140.8525  156.4258 N.ar    1  UNL1       -0.2282
     18 C         144.3962  142.3168  156.7183 C.ar    1  UNL1        0.1318
     19 N         145.6179  143.0139  156.1975 N.ar    1  UNL1       -0.3396
     20 H         145.7993  143.9802  156.2497 H       1  UNL1        0.1671
     21 F         146.7063  143.8048  153.2091 F       1  UNL1       -0.2041
     22 C         147.9412  143.1498  153.7533 C.ar    1  UNL1        0.1415
     23 C         149.2719  143.4070  153.1106 C.ar    1  UNL1        0.0297
     24 C         150.5067  142.7520  153.6547 C.ar    1  UNL1        0.0023
     25 C         150.4109  141.8398  154.8416 C.ar    1  UNL1        0.0002
     26 C         149.0803  141.5827  155.4843 C.ar    1  UNL1        0.0037
     27 C         147.8454  142.2376  154.9402 C.ar    1  UNL1        0.0446
     28 C         139.6260  144.3698  156.5415 C.3     1  UNL1        0.0252
     29 C         138.5234  143.3707  156.3527 C.3     1  UNL1        0.0339
     30 C         137.2981  143.7446  155.5722 C.3     1  UNL1        0.1422
     31 O         137.1756  145.1175  154.9806 O.3     1  UNL1       -0.3538
     32 C         138.2784  146.1167  155.1694 C.3     1  UNL1        0.1422
     33 C         139.5035  145.7428  155.9498 C.3     1  UNL1        0.0339
@<TRIPOS>BOND
     1    21    22    1
     2    22    23   ar
     3    23    24   ar
     4    24    25   ar
     5    25    26   ar
     6    26    27   ar
     7    27    15    1
     8    15    16   ar
     9    16    17   ar
    10    17    18   ar
    11     1    18    1
    12     1     2    1
    13     2     3    1
    14     3     4    2
    15     4     5    1
    16     5     6    2
    17     6     7    1
    18     7     8    1
    19     8     9    2
    20     9    10    1
    21    10    11    2
    22     4    12    1
    23    12    28    1
    24    28    29    1
    25    29    30    1
    26    30    31    1
    27    31    32    1
    28    32    33    1
    29    12    13    1
    30    18    19   ar
    31    27    22   ar
    32    19    15   ar
    33    13     1    1
    34    11     3    1
    35    33    28    1
    36    11     6    1
    37    13    14    1
    38    19    20    1
@<TRIPOS>MOLECULE
*****
 33 38 0 0 0
SMALL
GASTEIGER

@<TRIPOS>ATOM
      1 C         140.9172  144.2710  157.9152 C.3     1  UNL1        0.1161
      2 C         141.2428  144.7096  159.3122 C.3     1  UNL1        0.0510
      3 C         142.0216  143.8045  160.2201 C.2     1  UNL1       -0.0044
      4 C         142.4748  142.4608  159.7310 C.2     1  UNL1        0.0689
      5 N         143.2212  141.7895  160.8455 N.2     1  UNL1       -0.2526
      6 C         143.2295  142.7182  162.0234 C.2     1  UNL1        0.0627
      7 C         143.8163  142.5908  163.3979 C.3     1  UNL1        0.0717
      8 C         143.6617  143.7088  164.3859 C.2     1  UNL1       -0.0198
      9 C         142.9202  144.9541  163.9994 C.2     1  UNL1       -0.0042
     10 C         142.3334  145.0816  162.6249 C.2     1  UNL1        0.0006
     11 C         142.4881  143.9636  161.6369 C.2     1  UNL1        0.0111
     12 C         142.1491  142.0223  158.3340 C.3     1  UNL1        0.0949
     13 N         141.3703  142.9273  157.4261 N.3     1  UNL1       -0.2887
     14 H         140.5318  142.4165  157.1496 H       1  UNL1        0.1239
     15 C         139.3625  147.1496  155.8266 C.ar    1  UNL1        0.0791
     16 C         138.5173  145.9884  155.3940 C.ar    1  UNL1        0.1172
     17 N         138.9967  144.7687  156.1237 N.ar    1  UNL1       -0.2282
     18 C         140.1383  145.1761  157.0073 C.ar    1  UNL1        0.1318
     19 N         140.3644  146.6475  156.8237 N.ar    1  UNL1       -0.3396
     20 H         141.0500  147.1888  157.2779 H       1  UNL1        0.1671
     21 F         138.0521  149.2086  157.5710 F       1  UNL1       -0.2041
     22 C         138.5741  149.5939  156.2186 C.ar    1  UNL1        0.1415
     23 C         138.4410  151.0087  155.7384 C.ar    1  UNL1        0.0297
     24 C         138.9630  151.3939  154.3860 C.ar    1  UNL1        0.0023
     25 C         139.6182  150.3645  153.5137 C.ar    1  UNL1        0.0002
     26 C         139.7514  148.9497  153.9940 C.ar    1  UNL1        0.0037
     27 C         139.2293  148.5644  155.3464 C.ar    1  UNL1        0.0446
     28 C         142.6022  140.6786  157.8449 C.3     1  UNL1        0.0252
     29 C         142.1718  139.4345  158.5638 C.3     1  UNL1        0.0339
     30 C         142.6250  138.0908  158.0746 C.3     1  UNL1        0.1422
     31 O         143.5086  137.9913  156.8665 O.3     1  UNL1       -0.3538
     32 C         143.9390  139.2355  156.1476 C.3     1  UNL1        0.1422
     33 C         143.4858  140.5790  156.6368 C.3     1  UNL1        0.0339
@<TRIPOS>BOND
     1    21    22    1
     2    22    23   ar
     3    23    24   ar
     4    24    25   ar
     5    25    26   ar
     6    26    27   ar
     7    27    15    1
     8    15    16   ar
     9    16    17   ar
    10    17    18   ar
    11     1    18    1
    12     1     2    1
    13     2     3    1
    14     3     4    2
    15     4     5    1
    16     5     6    2
    17     6     7    1
    18     7     8    1
    19     8     9    2
    20     9    10    1
    21    10    11    2
    22     4    12    1
    23    12    28    1
    24    28    29    1
    25    29    30    1
    26    30    31    1
    27    31    32    1
    28    32    33    1
    29    12    13    1
    30    18    19   ar
    31    27    22   ar
    32    19    15   ar
    33    13     1    1
    34    11     3    1
    35    33    28    1
    36    11     6    1
    37    13    14    1
    38    19    20    1
@<TRIPOS>MOLECULE
*****
 33 38 0 0 0
SMALL
GASTEIGER

@<TRIPOS>ATOM
      1 C         142.0757  139.9959  160.6725 C.3     1  UNL1        0.1161
      2 C         142.5238  139.3661  161.9580 C.3     1  UNL1        0.0510
      3 C         142.2217  140.0350  163.2662 C.2     1  UNL1       -0.0044
      4 C         141.4715  141.3337  163.2888 C.2     1  UNL1        0.0689
      5 N         141.3199  141.7564  164.7200 N.2     1  UNL1       -0.2526
      6 C         141.9763  140.7190  165.5818 C.2     1  UNL1        0.0627
      7 C         142.1385  140.6057  167.0687 C.3     1  UNL1        0.0717
      8 C         142.8581  139.4284  167.6570 C.2     1  UNL1       -0.0198
      9 C         143.4155  138.3644  166.7585 C.2     1  UNL1       -0.0042
     10 C         143.2533  138.4778  165.2716 C.2     1  UNL1        0.0006
     11 C         142.5337  139.6550  164.6833 C.2     1  UNL1        0.0111
     12 C         141.0235  141.9635  162.0033 C.3     1  UNL1        0.0949
     13 N         141.3255  141.2947  160.6951 N.3     1  UNL1       -0.2887
     14 H         141.8693  141.9584  160.1436 H       1  UNL1        0.1239
     15 C         142.5034  137.6735  157.5920 C.ar    1  UNL1        0.0791
     16 C         143.1820  138.9216  157.1105 C.ar    1  UNL1        0.1172
     17 N         143.1044  139.9435  158.2058 N.ar    1  UNL1       -0.2282
     18 C         142.3778  139.3270  159.3643 C.ar    1  UNL1        0.1318
     19 N         142.0064  137.9241  158.9850 N.ar    1  UNL1       -0.3396
     20 H         141.5216  137.2807  159.5509 H       1  UNL1        0.1671
     21 F         140.3667  137.4401  155.4992 F       1  UNL1       -0.2041
     22 C         141.2806  136.2820  155.7704 C.ar    1  UNL1        0.1415
     23 C         141.1262  135.0072  154.9952 C.ar    1  UNL1        0.0297
     24 C         142.0401  133.8491  155.2663 C.ar    1  UNL1        0.0023
     25 C         143.1085  133.9658  156.3128 C.ar    1  UNL1        0.0002
     26 C         143.2629  135.2406  157.0880 C.ar    1  UNL1        0.0037
     27 C         142.3490  136.3987  156.8168 C.ar    1  UNL1        0.0446
     28 C         140.2733  143.2623  162.0259 C.3     1  UNL1        0.0252
     29 C         140.8546  144.4758  161.3632 C.3     1  UNL1        0.0339
     30 C         140.1044  145.7746  161.3858 C.3     1  UNL1        0.1422
     31 O         138.7728  145.8597  162.0713 O.3     1  UNL1       -0.3538
     32 C         138.1915  144.6461  162.7340 C.3     1  UNL1        0.1422
     33 C         138.9417  143.3475  162.7113 C.3     1  UNL1        0.0339
@<TRIPOS>BOND
     1    21    22    1
     2    22    23   ar
     3    23    24   ar
     4    24    25   ar
     5    25    26   ar
     6    26    27   ar
     7    27    15    1
     8    15    16   ar
     9    16    17   ar
    10    17    18   ar
    11     1    18    1
    12     1     2    1
    13     2     3    1
    14     3     4    2
    15     4     5    1
    16     5     6    2
    17     6     7    1
    18     7     8    1
    19     8     9    2
    20     9    10    1
    21    10    11    2
    22     4    12    1
    23    12    28    1
    24    28    29    1
    25    29    30    1
    26    30    31    1
    27    31    32    1
    28    32    33    1
    29    12    13    1
    30    18    19   ar
    31    27    22   ar
    32    19    15   ar
    33    13     1    1
    34    11     3    1
    35    33    28    1
    36    11     6    1
    37    13    14    1
    38    19    20    1
@<TRIPOS>MOLECULE
*****
 33 38 0 0 0
SMALL
GASTEIGER

@<TRIPOS>ATOM
      1 C         143.3314  140.0302  157.9619 C.3     1  UNL1        0.1161
      2 C         143.9060  140.1165  159.3448 C.3     1  UNL1        0.0510
      3 C         143.7315  141.3682  160.1527 C.2     1  UNL1       -0.0044
      4 C         142.9824  142.5336  159.5777 C.2     1  UNL1        0.0689
      5 N         142.9706  143.6284  160.6030 N.2     1  UNL1       -0.2526
      6 C         143.7124  143.1396  161.8117 C.2     1  UNL1        0.0627
      7 C         144.0204  143.7861  163.1297 C.3     1  UNL1        0.0717
      8 C         144.7987  143.0356  164.1694 C.2     1  UNL1       -0.0198
      9 C         145.2689  141.6386  163.8911 C.2     1  UNL1       -0.0042
     10 C         144.9609  140.9922  162.5731 C.2     1  UNL1        0.0006
     11 C         144.1827  141.7427  161.5334 C.2     1  UNL1        0.0111
     12 C         142.4078  142.4474  158.1948 C.3     1  UNL1        0.0949
     13 N         142.5823  141.1957  157.3869 N.3     1  UNL1       -0.2887
     14 H         143.0668  141.4633  156.5301 H       1  UNL1        0.1239
     15 C         143.3669  136.4716  156.4125 C.ar    1  UNL1        0.0791
     16 C         144.1818  137.2327  155.4092 C.ar    1  UNL1        0.1172
     17 N         144.2677  138.6584  155.8675 N.ar    1  UNL1       -0.2282
     18 C         143.5059  138.7784  157.1540 C.ar    1  UNL1        0.1318
     19 N         142.9492  137.4270  157.4908 N.ar    1  UNL1       -0.3396
     20 H         142.4051  137.2058  158.2810 H       1  UNL1        0.1671
     21 F         141.0510  135.5391  154.7490 F       1  UNL1       -0.2041
     22 C         141.8711  134.5453  155.5169 C.ar    1  UNL1        0.1415
     23 C         141.5333  133.0853  155.4532 C.ar    1  UNL1        0.0297
     24 C         142.3535  132.0914  156.2211 C.ar    1  UNL1        0.0023
     25 C         143.5114  132.5577  157.0528 C.ar    1  UNL1        0.0002
     26 C         143.8492  134.0177  157.1166 C.ar    1  UNL1        0.0037
     27 C         143.0291  135.0115  156.3486 C.ar    1  UNL1        0.0446
     28 C         141.6588  143.6128  157.6198 C.3     1  UNL1        0.0252
     29 C         140.2378  143.4431  157.1705 C.3     1  UNL1        0.0339
     30 C         139.4888  144.6087  156.5955 C.3     1  UNL1        0.1422
     31 O         140.1608  145.9438  156.4698 O.3     1  UNL1       -0.3538
     32 C         141.5818  146.1135  156.9191 C.3     1  UNL1        0.1422
     33 C         142.3308  144.9480  157.4940 C.3     1  UNL1        0.0339
@<TRIPOS>BOND
     1    21    22    1
     2    22    23   ar
     3    23    24   ar
     4    24    25   ar
     5    25    26   ar
     6    26    27   ar
     7    27    15    1
     8    15    16   ar
     9    16    17   ar
    10    17    18   ar
    11     1    18    1
    12     1     2    1
    13     2     3    1
    14     3     4    2
    15     4     5    1
    16     5     6    2
    17     6     7    1
    18     7     8    1
    19     8     9    2
    20     9    10    1
    21    10    11    2
    22     4    12    1
    23    12    28    1
    24    28    29    1
    25    29    30    1
    26    30    31    1
    27    31    32    1
    28    32    33    1
    29    12    13    1
    30    18    19   ar
    31    27    22   ar
    32    19    15   ar
    33    13     1    1
    34    11     3    1
    35    33    28    1
    36    11     6    1
    37    13    14    1
    38    19    20    1
@<TRIPOS>MOLECULE
*****
 33 38 0 0 0
SMALL
GASTEIGER

@<TRIPOS>ATOM
      1 C         142.4974  138.1809  158.4341 C.3     1  UNL1        0.1161
      2 C         142.4829  139.6401  158.0868 C.3     1  UNL1        0.0510
      3 C         141.9482  140.6396  159.0692 C.2     1  UNL1       -0.0044
      4 C         141.4280  140.1799  160.3988 C.2     1  UNL1        0.0689
      5 N         140.9657  141.3879  161.1584 N.2     1  UNL1       -0.2526
      6 C         141.2002  142.5942  160.2982 C.2     1  UNL1        0.0627
      7 C         140.9392  144.0539  160.5238 C.3     1  UNL1        0.0717
      8 C         141.2854  145.0512  159.4582 C.2     1  UNL1       -0.0198
      9 C         141.8927  144.5887  158.1670 C.2     1  UNL1       -0.0042
     10 C         142.1537  143.1289  157.9413 C.2     1  UNL1        0.0006
     11 C         141.8074  142.1317  159.0069 C.2     1  UNL1        0.0111
     12 C         141.4425  138.7207  160.7462 C.3     1  UNL1        0.0949
     13 N         141.9772  137.7212  159.7638 N.3     1  UNL1       -0.2887
     14 H         141.2219  137.0629  159.5729 H       1  UNL1        0.1239
     15 C         143.6123  135.0841  156.3769 C.ar    1  UNL1        0.0791
     16 C         144.0977  136.2025  155.5031 C.ar    1  UNL1        0.1172
     17 N         143.7392  137.4987  156.1674 N.ar    1  UNL1       -0.2282
     18 C         143.0322  137.1814  157.4517 C.ar    1  UNL1        0.1318
     19 N         142.9538  135.6891  157.5812 N.ar    1  UNL1       -0.3396
     20 H         142.5424  135.1936  158.3259 H       1  UNL1        0.1671
     21 F         145.0172  133.3123  158.3485 F       1  UNL1       -0.2041
     22 C         144.4620  132.7321  157.0816 C.ar    1  UNL1        0.1415
     23 C         144.6093  131.2661  156.8004 C.ar    1  UNL1        0.0297
     24 C         144.0541  130.6860  155.5334 C.ar    1  UNL1        0.0023
     25 C         143.3517  131.5718  154.5476 C.ar    1  UNL1        0.0002
     26 C         143.2045  133.0378  154.8288 C.ar    1  UNL1        0.0037
     27 C         143.7596  133.6180  156.0958 C.ar    1  UNL1        0.0446
     28 C         140.9223  138.2610  162.0759 C.3     1  UNL1        0.0252
     29 C         141.8805  137.8735  163.1628 C.3     1  UNL1        0.0339
     30 C         141.3602  137.4138  164.4925 C.3     1  UNL1        0.1422
     31 O         139.8818  137.3417  164.7352 O.3     1  UNL1       -0.3538
     32 C         138.9235  137.7293  163.6482 C.3     1  UNL1        0.1422
     33 C         139.4438  138.1889  162.3186 C.3     1  UNL1        0.0339
@<TRIPOS>BOND
     1    21    22    1
     2    22    23   ar
     3    23    24   ar
     4    24    25   ar
     5    25    26   ar
     6    26    27   ar
     7    27    15    1
     8    15    16   ar
     9    16    17   ar
    10    17    18   ar
    11     1    18    1
    12     1     2    1
    13     2     3    1
    14     3     4    2
    15     4     5    1
    16     5     6    2
    17     6     7    1
    18     7     8    1
    19     8     9    2
    20     9    10    1
    21    10    11    2
    22     4    12    1
    23    12    28    1
    24    28    29    1
    25    29    30    1
    26    30    31    1
    27    31    32    1
    28    32    33    1
    29    12    13    1
    30    18    19   ar
    31    27    22   ar
    32    19    15   ar
    33    13     1    1
    34    11     3    1
    35    33    28    1
    36    11     6    1
    37    13    14    1
    38    19    20    1
@<TRIPOS>MOLECULE
*****
 33 38 0 0 0
SMALL
GASTEIGER

@<TRIPOS>ATOM
      1 C         142.9868  142.2207  158.0357 C.3     1  UNL1        0.1161
      2 C         142.5979  140.7745  157.9498 C.3     1  UNL1        0.0510
      3 C         143.3554  139.8465  157.0470 C.2     1  UNL1       -0.0044
      4 C         144.5018  140.3647  156.2302 C.2     1  UNL1        0.0689
      5 N         145.0585  139.2211  155.4349 N.2     1  UNL1       -0.2526
      6 C         144.2561  137.9962  155.7603 C.2     1  UNL1        0.0627
      7 C         144.3480  136.5789  155.2780 C.3     1  UNL1        0.0717
      8 C         143.3872  135.5480  155.7921 C.2     1  UNL1       -0.0198
      9 C         142.3347  135.9345  156.7885 C.2     1  UNL1       -0.0042
     10 C         142.2429  137.3519  157.2707 C.2     1  UNL1        0.0006
     11 C         143.2036  138.3827  156.7566 C.2     1  UNL1        0.0111
     12 C         144.8907  141.8108  156.3161 C.3     1  UNL1        0.0949
     13 N         144.1332  142.7388  157.2188 N.3     1  UNL1       -0.2887
     14 H         143.7620  143.4845  156.6301 H       1  UNL1        0.1239
     15 C         140.8230  143.9902  160.7286 C.ar    1  UNL1        0.0791
     16 C         141.3041  145.1631  159.9268 C.ar    1  UNL1        0.1172
     17 N         142.1732  144.6430  158.8204 N.ar    1  UNL1       -0.2282
     18 C         142.2293  143.1487  158.9385 C.ar    1  UNL1        0.1318
     19 N         141.3949  142.7452  160.1178 N.ar    1  UNL1       -0.3396
     20 H         141.2482  141.8249  160.4353 H       1  UNL1        0.1671
     21 F         141.6776  145.5267  163.1595 F       1  UNL1       -0.2041
     22 C         140.3547  144.8198  163.1458 C.ar    1  UNL1        0.1415
     23 C         139.4590  144.8810  164.3475 C.ar    1  UNL1        0.0297
     24 C         138.1361  144.1741  164.3337 C.ar    1  UNL1        0.0023
     25 C         137.7089  143.4059  163.1183 C.ar    1  UNL1        0.0002
     26 C         138.6045  143.3446  161.9167 C.ar    1  UNL1        0.0037
     27 C         139.9274  144.0515  161.9304 C.ar    1  UNL1        0.0446
     28 C         146.0371  142.3290  155.4992 C.3     1  UNL1        0.0252
     29 C         145.7887  143.3240  154.4046 C.3     1  UNL1        0.0339
     30 C         146.9352  143.8421  153.5877 C.3     1  UNL1        0.1422
     31 O         148.3300  143.3653  153.8656 O.3     1  UNL1       -0.3538
     32 C         148.5784  142.3703  154.9602 C.3     1  UNL1        0.1422
     33 C         147.4320  141.8522  155.7770 C.3     1  UNL1        0.0339
@<TRIPOS>BOND
     1    21    22    1
     2    22    23   ar
     3    23    24   ar
     4    24    25   ar
     5    25    26   ar
     6    26    27   ar
     7    27    15    1
     8    15    16   ar
     9    16    17   ar
    10    17    18   ar
    11     1    18    1
    12     1     2    1
    13     2     3    1
    14     3     4    2
    15     4     5    1
    16     5     6    2
    17     6     7    1
    18     7     8    1
    19     8     9    2
    20     9    10    1
    21    10    11    2
    22     4    12    1
    23    12    28    1
    24    28    29    1
    25    29    30    1
    26    30    31    1
    27    31    32    1
    28    32    33    1
    29    12    13    1
    30    18    19   ar
    31    27    22   ar
    32    19    15   ar
    33    13     1    1
    34    11     3    1
    35    33    28    1
    36    11     6    1
    37    13    14    1
    38    19    20    1
@<TRIPOS>MOLECULE
*****
 33 38 0 0 0
SMALL
GASTEIGER

@<TRIPOS>ATOM
      1 C         140.5342  139.7327  160.8449 C.3     1  UNL1        0.1161
      2 C         139.8088  139.1146  162.0033 C.3     1  UNL1        0.0510
      3 C         139.9089  139.7322  163.3666 C.2     1  UNL1       -0.0044
      4 C         140.7343  140.9677  163.5715 C.2     1  UNL1        0.0689
      5 N         140.6461  141.3493  165.0194 N.2     1  UNL1       -0.2526
      6 C         139.7661  140.3495  165.7095 C.2     1  UNL1        0.0627
      7 C         139.3208  140.2201  167.1359 C.3     1  UNL1        0.0717
      8 C         138.4199  139.0913  167.5409 C.2     1  UNL1       -0.0198
      9 C         137.9643  138.0918  166.5194 C.2     1  UNL1       -0.0042
     10 C         138.4096  138.2212  165.0929 C.2     1  UNL1        0.0006
     11 C         139.3105  139.3501  164.6879 C.2     1  UNL1        0.0111
     12 C         141.4597  141.5858  162.4131 C.3     1  UNL1        0.0949
     13 N         141.3596  140.9682  161.0498 N.3     1  UNL1       -0.2887
     14 H         142.3103  140.7386  160.7600 H       1  UNL1        0.1239
     15 C         140.9387  137.8222  157.4905 C.ar    1  UNL1        0.0791
     16 C         139.6215  138.5072  157.2769 C.ar    1  UNL1        0.1172
     17 N         139.3096  139.3063  158.5074 N.ar    1  UNL1       -0.2282
     18 C         140.4341  139.1151  159.4815 C.ar    1  UNL1        0.1318
     19 N         141.4409  138.1978  158.8531 N.ar    1  UNL1       -0.3396
     20 H         142.2834  137.8955  159.2630 H       1  UNL1        0.1671
     21 F         139.3412  136.3132  155.4482 F       1  UNL1       -0.2041
     22 C         140.8333  136.1654  155.4920 C.ar    1  UNL1        0.1415
     23 C         141.5266  135.2631  154.5147 C.ar    1  UNL1        0.0297
     24 C         143.0187  135.1153  154.5586 C.ar    1  UNL1        0.0023
     25 C         143.8174  135.8697  155.5797 C.ar    1  UNL1        0.0002
     26 C         143.1241  136.7720  156.5570 C.ar    1  UNL1        0.0037
     27 C         141.6320  136.9198  156.5131 C.ar    1  UNL1        0.0446
     28 C         142.2852  142.8213  162.6179 C.3     1  UNL1        0.0252
     29 C         141.6430  144.0756  163.1320 C.3     1  UNL1        0.0339
     30 C         142.4686  145.3112  163.3369 C.3     1  UNL1        0.1422
     31 O         143.9362  145.2924  163.0276 O.3     1  UNL1       -0.3538
     32 C         144.5784  144.0381  162.5136 C.3     1  UNL1        0.1422
     33 C         143.7529  142.8026  162.3087 C.3     1  UNL1        0.0339
@<TRIPOS>BOND
     1    21    22    1
     2    22    23   ar
     3    23    24   ar
     4    24    25   ar
     5    25    26   ar
     6    26    27   ar
     7    27    15    1
     8    15    16   ar
     9    16    17   ar
    10    17    18   ar
    11     1    18    1
    12     1     2    1
    13     2     3    1
    14     3     4    2
    15     4     5    1
    16     5     6    2
    17     6     7    1
    18     7     8    1
    19     8     9    2
    20     9    10    1
    21    10    11    2
    22     4    12    1
    23    12    28    1
    24    28    29    1
    25    29    30    1
    26    30    31    1
    27    31    32    1
    28    32    33    1
    29    12    13    1
    30    18    19   ar
    31    27    22   ar
    32    19    15   ar
    33    13     1    1
    34    11     3    1
    35    33    28    1
    36    11     6    1
    37    13    14    1
    38    19    20    1
