@<TRIPOS>MOLECULE
*****
 39 42 0 0 0
SMALL
GASTEIGER

@<TRIPOS>ATOM
      1 C         142.8829  138.9060  164.7837 C.ar    1  UNL1        0.0068
      2 C         141.7666  138.1016  164.1866 C.ar    1  UNL1       -0.0020
      3 C         141.8452  137.6555  162.7566 C.ar    1  UNL1       -0.0002
      4 C         143.0401  138.0140  161.9237 C.ar    1  UNL1        0.0024
      5 C         144.1564  138.8184  162.5208 C.ar    1  UNL1        0.0293
      6 C         144.0778  139.2644  163.9508 C.ar    1  UNL1        0.1362
      7 F         145.1942  140.0689  164.5479 F       1  UNL1       -0.2045
      8 C         143.0308  138.8985  170.0619 C.3     1  UNL1        0.0897
      9 N         142.8724  139.3486  168.6398 N.3     1  UNL1       -0.2708
     10 C         142.4948  140.7285  168.1886 C.3     1  UNL1        0.0816
     11 C         142.4528  140.7305  166.6892 C.3     1  UNL1        0.0981
     12 C         142.8044  139.3521  166.2137 C.3     1  UNL1        0.0505
     13 C         143.0637  138.4980  167.4192 C.3     1  UNL1        0.0771
     14 C         142.1179  141.9050  165.8182 C.2     1  UNL1        0.2274
     15 O         143.0347  143.0914  165.7740 O.2     1  UNL1       -0.2747
     16 N         140.8664  141.8930  164.9915 N.am    1  UNL1       -0.2839
     17 H         140.2647  141.1143  165.0206 H       1  UNL1        0.1549
     18 C         140.5316  143.0675  164.1205 C.ar    1  UNL1        0.0504
     19 C         141.3982  143.3983  162.9418 C.ar    1  UNL1        0.0155
     20 C         141.0634  144.5728  162.0709 C.ar    1  UNL1        0.0127
     21 C         139.8618  145.4163  162.3787 C.ar    1  UNL1        0.0578
     22 CL        139.5270  146.5908  161.5077 Cl      1  UNL1       -0.0822
     23 C         138.9952  145.0855  163.5574 C.ar    1  UNL1        0.0127
     24 C         139.3300  143.9111  164.4283 C.ar    1  UNL1        0.0155
     25 C         143.1186  137.5679  160.4937 C.2     1  UNL1        0.0047
     26 C         142.5710  138.4418  159.4044 C.2     1  UNL1        0.0580
     27 C         142.6494  137.9958  157.9744 C.2     1  UNL1        0.2497
     28 O         143.7427  138.5123  157.0867 O.2     1  UNL1       -0.2698
     29 N         141.6347  137.0334  157.4321 N.am    1  UNL1       -0.2794
     30 H         140.9172  136.6944  158.0147 H       1  UNL1        0.1552
     31 C         141.7132  136.5875  156.0021 C.ar    1  UNL1        0.0636
     32 C         140.8999  137.2858  154.9529 C.ar    1  UNL1        0.0159
     33 C         140.9785  136.8398  153.5229 C.ar    1  UNL1        0.0014
     34 C         141.8704  135.6955  153.1421 C.ar    1  UNL1        0.0013
     35 C         142.6838  134.9972  154.1913 C.ar    1  UNL1        0.0153
     36 C         142.6052  135.4432  155.6213 C.ar    1  UNL1        0.0552
     37 N         143.4186  134.7449  156.6704 N.pl3   1  UNL1       -0.3560
     38 H         144.0040  133.9939  156.4205 H       1  UNL1        0.1424
     39 H         143.3670  135.0376  157.6090 H       1  UNL1        0.1424
@<TRIPOS>BOND
     1     8     9    1
     2     9    10    1
     3    10    11    1
     4    11    14    1
     5    14    15    2
     6    14    16   am
     7    16    18    1
     8    18    19   ar
     9    19    20   ar
    10    20    21   ar
    11    21    22    1
    12    21    23   ar
    13    23    24   ar
    14    11    12    1
    15    12     1    1
    16     1     2   ar
    17     2     3   ar
    18     3     4   ar
    19     4    25    1
    20    25    26    2
    21    26    27    1
    22    27    28    2
    23    27    29   am
    24    29    31    1
    25    31    32   ar
    26    32    33   ar
    27    33    34   ar
    28    34    35   ar
    29    35    36   ar
    30    36    37    1
    31     4     5   ar
    32     5     6   ar
    33     6     7    1
    34    12    13    1
    35    13     9    1
    36    24    18   ar
    37     6     1   ar
    38    36    31   ar
    39    16    17    1
    40    29    30    1
    41    37    38    1
    42    37    39    1
@<TRIPOS>MOLECULE
*****
 39 42 0 0 0
SMALL
GASTEIGER

@<TRIPOS>ATOM
      1 C         140.5295  143.2454  164.7281 C.ar    1  UNL1        0.0068
      2 C         139.2750  143.3549  163.9130 C.ar    1  UNL1       -0.0020
      3 C         139.2828  144.1217  162.6239 C.ar    1  UNL1       -0.0002
      4 C         140.5450  144.7791  162.1498 C.ar    1  UNL1        0.0024
      5 C         141.7994  144.6697  162.9649 C.ar    1  UNL1        0.0293
      6 C         141.7917  143.9028  164.2540 C.ar    1  UNL1        0.1362
      7 F         143.0461  143.7933  165.0691 F       1  UNL1       -0.2045
      8 C         140.1460  142.0471  169.8562 C.3     1  UNL1        0.0897
      9 N         140.3455  141.9277  168.3744 N.3     1  UNL1       -0.2708
     10 C         140.6745  140.6691  167.6275 C.3     1  UNL1        0.0816
     11 C         140.7835  141.0096  166.1708 C.3     1  UNL1        0.0981
     12 C         140.5218  142.4786  166.0172 C.3     1  UNL1        0.0505
     13 C         140.2512  143.0460  167.3791 C.3     1  UNL1        0.0771
     14 C         141.0987  140.0495  165.0621 C.2     1  UNL1        0.2274
     15 O         140.6171  138.6310  165.1388 O.2     1  UNL1       -0.2747
     16 N         141.8956  140.5080  163.8769 N.am    1  UNL1       -0.2839
     17 H         142.2117  141.4390  163.8266 H       1  UNL1        0.1549
     18 C         142.2108  139.5479  162.7683 C.ar    1  UNL1        0.0504
     19 C         143.5333  138.8406  162.7421 C.ar    1  UNL1        0.0155
     20 C         143.8485  137.8806  161.6335 C.ar    1  UNL1        0.0127
     21 C         142.8412  137.6279  160.5512 C.ar    1  UNL1        0.0578
     22 CL        143.1565  136.6678  159.4426 Cl      1  UNL1       -0.0822
     23 C         141.5187  138.3351  160.5774 C.ar    1  UNL1        0.0127
     24 C         141.2035  139.2951  161.6860 C.ar    1  UNL1        0.0155
     25 C         140.5527  145.5460  160.8607 C.2     1  UNL1        0.0047
     26 C         141.2016  144.9585  159.6425 C.2     1  UNL1        0.0580
     27 C         141.2093  145.7253  158.3533 C.2     1  UNL1        0.2497
     28 O         142.4892  146.3146  157.8389 O.2     1  UNL1       -0.2698
     29 N         139.9372  145.9029  157.5785 N.am    1  UNL1       -0.2794
     30 H         139.0971  145.5161  157.9162 H       1  UNL1        0.1552
     31 C         139.9450  146.6696  156.2894 C.ar    1  UNL1        0.0636
     32 C         140.6602  146.1170  155.0923 C.ar    1  UNL1        0.0159
     33 C         140.6680  146.8838  153.8032 C.ar    1  UNL1        0.0014
     34 C         139.9605  148.2033  153.7112 C.ar    1  UNL1        0.0013
     35 C         139.2453  148.7560  154.9082 C.ar    1  UNL1        0.0153
     36 C         139.2376  147.9891  156.1974 C.ar    1  UNL1        0.0552
     37 N         138.5224  148.5418  157.3945 N.pl3   1  UNL1       -0.3560
     38 H         138.0581  149.4078  157.3341 H       1  UNL1        0.1424
     39 H         138.5173  148.0385  158.2406 H       1  UNL1        0.1424
@<TRIPOS>BOND
     1     8     9    1
     2     9    10    1
     3    10    11    1
     4    11    14    1
     5    14    15    2
     6    14    16   am
     7    16    18    1
     8    18    19   ar
     9    19    20   ar
    10    20    21   ar
    11    21    22    1
    12    21    23   ar
    13    23    24   ar
    14    11    12    1
    15    12     1    1
    16     1     2   ar
    17     2     3   ar
    18     3     4   ar
    19     4    25    1
    20    25    26    2
    21    26    27    1
    22    27    28    2
    23    27    29   am
    24    29    31    1
    25    31    32   ar
    26    32    33   ar
    27    33    34   ar
    28    34    35   ar
    29    35    36   ar
    30    36    37    1
    31     4     5   ar
    32     5     6   ar
    33     6     7    1
    34    12    13    1
    35    13     9    1
    36    24    18   ar
    37     6     1   ar
    38    36    31   ar
    39    16    17    1
    40    29    30    1
    41    37    38    1
    42    37    39    1
@<TRIPOS>MOLECULE
*****
 39 42 0 0 0
SMALL
GASTEIGER

@<TRIPOS>ATOM
      1 C         141.2561  141.5415  161.0220 C.ar    1  UNL1        0.0068
      2 C         140.2745  140.5029  160.5661 C.ar    1  UNL1       -0.0020
      3 C         140.7654  139.2242  159.9546 C.ar    1  UNL1       -0.0002
      4 C         142.2379  138.9840  159.7990 C.ar    1  UNL1        0.0024
      5 C         143.2194  140.0226  160.2549 C.ar    1  UNL1        0.0293
      6 C         142.7285  141.3013  160.8663 C.ar    1  UNL1        0.1362
      7 F         143.7101  142.3399  161.3222 F       1  UNL1       -0.2045
      8 C         139.5155  146.4947  161.5857 C.3     1  UNL1        0.0897
      9 N         139.9652  145.0970  161.8926 N.3     1  UNL1       -0.2708
     10 C         140.0547  144.4790  163.2565 C.3     1  UNL1        0.0816
     11 C         140.5492  143.0719  163.0963 C.3     1  UNL1        0.0981
     12 C         140.7653  142.8202  161.6335 C.3     1  UNL1        0.0505
     13 C         140.4044  144.0718  160.8895 C.3     1  UNL1        0.0771
     14 C         140.7859  142.0891  164.2045 C.2     1  UNL1        0.2274
     15 O         140.0533  140.7802  164.2154 O.2     1  UNL1       -0.2747
     16 N         141.7553  142.4151  165.3018 N.am    1  UNL1       -0.2839
     17 H         142.2361  143.2742  165.2946 H       1  UNL1        0.1549
     18 C         141.9920  141.4323  166.4100 C.ar    1  UNL1        0.0504
     19 C         142.7776  140.1816  166.1481 C.ar    1  UNL1        0.0155
     20 C         143.0143  139.1988  167.2562 C.ar    1  UNL1        0.0127
     21 C         142.4655  139.4668  168.6263 C.ar    1  UNL1        0.0578
     22 CL        142.7023  138.4839  169.7345 Cl      1  UNL1       -0.0822
     23 C         141.6800  140.7175  168.8882 C.ar    1  UNL1        0.0127
     24 C         141.4433  141.7002  167.7800 C.ar    1  UNL1        0.0155
     25 C         142.7287  137.7053  159.1875 C.2     1  UNL1        0.0047
     26 C         142.7221  137.5358  157.6971 C.2     1  UNL1        0.0580
     27 C         143.2128  136.2571  157.0855 C.2     1  UNL1        0.2497
     28 O         143.9807  136.2882  155.7973 O.2     1  UNL1       -0.2698
     29 N         142.9359  134.9473  157.7621 N.am    1  UNL1       -0.2794
     30 H         142.4319  134.9269  158.6076 H       1  UNL1        0.1552
     31 C         143.4267  133.6687  157.1505 C.ar    1  UNL1        0.0636
     32 C         144.6974  133.0413  157.6422 C.ar    1  UNL1        0.0159
     33 C         145.1881  131.7627  157.0305 C.ar    1  UNL1        0.0014
     34 C         144.4082  131.1114  155.9270 C.ar    1  UNL1        0.0013
     35 C         143.1375  131.7387  155.4353 C.ar    1  UNL1        0.0153
     36 C         142.6468  133.0174  156.0470 C.ar    1  UNL1        0.0552
     37 N         141.3761  133.6447  155.5553 N.pl3   1  UNL1       -0.3560
     38 H         140.8642  133.2173  154.8311 H       1  UNL1        0.1424
     39 H         141.0540  134.4840  155.9568 H       1  UNL1        0.1424
@<TRIPOS>BOND
     1     8     9    1
     2     9    10    1
     3    10    11    1
     4    11    14    1
     5    14    15    2
     6    14    16   am
     7    16    18    1
     8    18    19   ar
     9    19    20   ar
    10    20    21   ar
    11    21    22    1
    12    21    23   ar
    13    23    24   ar
    14    11    12    1
    15    12     1    1
    16     1     2   ar
    17     2     3   ar
    18     3     4   ar
    19     4    25    1
    20    25    26    2
    21    26    27    1
    22    27    28    2
    23    27    29   am
    24    29    31    1
    25    31    32   ar
    26    32    33   ar
    27    33    34   ar
    28    34    35   ar
    29    35    36   ar
    30    36    37    1
    31     4     5   ar
    32     5     6   ar
    33     6     7    1
    34    12    13    1
    35    13     9    1
    36    24    18   ar
    37     6     1   ar
    38    36    31   ar
    39    16    17    1
    40    29    30    1
    41    37    38    1
    42    37    39    1
@<TRIPOS>MOLECULE
*****
 39 42 0 0 0
SMALL
GASTEIGER

@<TRIPOS>ATOM
      1 C         142.6122  138.9510  165.0105 C.ar    1  UNL1        0.0068
      2 C         141.4718  138.1840  164.4095 C.ar    1  UNL1       -0.0020
      3 C         141.5370  137.7425  162.9774 C.ar    1  UNL1       -0.0002
      4 C         142.7426  138.0680  162.1463 C.ar    1  UNL1        0.0024
      5 C         143.8830  138.8349  162.7473 C.ar    1  UNL1        0.0293
      6 C         143.8178  139.2764  164.1794 C.ar    1  UNL1        0.1362
      7 F         144.9582  140.0434  164.7804 F       1  UNL1       -0.2045
      8 C         143.1207  139.0427  170.2654 C.3     1  UNL1        0.0897
      9 N         142.7809  139.4347  168.8580 N.3     1  UNL1       -0.2708
     10 C         142.1129  140.7094  168.4345 C.3     1  UNL1        0.0816
     11 C         141.9685  140.6832  166.9417 C.3     1  UNL1        0.0981
     12 C         142.5471  139.3925  166.4425 C.3     1  UNL1        0.0505
     13 C         143.0492  138.6208  167.6268 C.3     1  UNL1        0.0771
     14 C         141.3534  141.7590  166.0965 C.2     1  UNL1        0.2274
     15 O         140.0922  142.4360  166.5450 O.2     1  UNL1       -0.2747
     16 N         141.9994  142.1578  164.8029 N.am    1  UNL1       -0.2839
     17 H         142.8271  141.7134  164.5085 H       1  UNL1        0.1549
     18 C         141.3843  143.2336  163.9576 C.ar    1  UNL1        0.0504
     19 C         140.2514  142.9040  163.0315 C.ar    1  UNL1        0.0155
     20 C         139.6363  143.9798  162.1864 C.ar    1  UNL1        0.0127
     21 C         140.1542  145.3852  162.2674 C.ar    1  UNL1        0.0578
     22 CL        139.5391  146.4610  161.4221 Cl      1  UNL1       -0.0822
     23 C         141.2871  145.7148  163.1935 C.ar    1  UNL1        0.0127
     24 C         141.9022  144.6390  164.0386 C.ar    1  UNL1        0.0155
     25 C         142.8077  137.6265  160.7142 C.2     1  UNL1        0.0047
     26 C         141.9746  138.3196  159.6772 C.2     1  UNL1        0.0580
     27 C         142.0396  137.8781  158.2451 C.2     1  UNL1        0.2497
     28 O         142.9138  136.7232  157.8553 O.2     1  UNL1       -0.2698
     29 N         141.2305  138.5916  157.2027 N.am    1  UNL1       -0.2794
     30 H         140.6568  139.3496  157.4586 H       1  UNL1        0.1552
     31 C         141.2957  138.1501  155.7707 C.ar    1  UNL1        0.0636
     32 C         142.4285  138.6016  154.8974 C.ar    1  UNL1        0.0159
     33 C         142.4935  138.1600  153.4653 C.ar    1  UNL1        0.0014
     34 C         141.4257  137.2669  152.9066 C.ar    1  UNL1        0.0013
     35 C         140.2928  136.8154  153.7800 C.ar    1  UNL1        0.0153
     36 C         140.2278  137.2570  155.2120 C.ar    1  UNL1        0.0552
     37 N         139.0950  136.8054  156.0854 N.pl3   1  UNL1       -0.3560
     38 H         138.3941  136.2193  155.7187 H       1  UNL1        0.1424
     39 H         139.0523  137.0953  157.0253 H       1  UNL1        0.1424
@<TRIPOS>BOND
     1     8     9    1
     2     9    10    1
     3    10    11    1
     4    11    14    1
     5    14    15    2
     6    14    16   am
     7    16    18    1
     8    18    19   ar
     9    19    20   ar
    10    20    21   ar
    11    21    22    1
    12    21    23   ar
    13    23    24   ar
    14    11    12    1
    15    12     1    1
    16     1     2   ar
    17     2     3   ar
    18     3     4   ar
    19     4    25    1
    20    25    26    2
    21    26    27    1
    22    27    28    2
    23    27    29   am
    24    29    31    1
    25    31    32   ar
    26    32    33   ar
    27    33    34   ar
    28    34    35   ar
    29    35    36   ar
    30    36    37    1
    31     4     5   ar
    32     5     6   ar
    33     6     7    1
    34    12    13    1
    35    13     9    1
    36    24    18   ar
    37     6     1   ar
    38    36    31   ar
    39    16    17    1
    40    29    30    1
    41    37    38    1
    42    37    39    1
@<TRIPOS>MOLECULE
*****
 39 42 0 0 0
SMALL
GASTEIGER

@<TRIPOS>ATOM
      1 C         141.2619  142.7472  157.3910 C.ar    1  UNL1        0.0068
      2 C         140.3464  141.5933  157.1075 C.ar    1  UNL1       -0.0020
      3 C         140.8782  140.1910  157.1300 C.ar    1  UNL1       -0.0002
      4 C         142.3255  139.9424  157.4361 C.ar    1  UNL1        0.0024
      5 C         143.2410  141.0963  157.7196 C.ar    1  UNL1        0.0293
      6 C         142.7092  142.4986  157.6970 C.ar    1  UNL1        0.1362
      7 F         143.6247  143.6525  157.9805 F       1  UNL1       -0.2045
      8 C         139.4447  147.4021  155.6849 C.3     1  UNL1        0.0897
      9 N         139.8949  146.2893  156.5842 N.3     1  UNL1       -0.2708
     10 C         139.9291  146.3263  158.0835 C.3     1  UNL1        0.0816
     11 C         140.4453  145.0039  158.5680 C.3     1  UNL1        0.0981
     12 C         140.7302  144.1496  157.3684 C.3     1  UNL1        0.0505
     13 C         140.3901  144.9440  156.1424 C.3     1  UNL1        0.0771
     14 C         140.6421  144.6057  160.0008 C.2     1  UNL1        0.2274
     15 O         142.0263  144.5222  160.5727 O.2     1  UNL1       -0.2747
     16 N         139.4548  144.2910  160.8617 N.am    1  UNL1       -0.2839
     17 H         138.5463  144.3457  160.4863 H       1  UNL1        0.1549
     18 C         139.6516  143.8928  162.2944 C.ar    1  UNL1        0.0504
     19 C         140.2295  142.5491  162.6269 C.ar    1  UNL1        0.0155
     20 C         140.4263  142.1510  164.0596 C.ar    1  UNL1        0.0127
     21 C         140.0451  143.0965  165.1599 C.ar    1  UNL1        0.0578
     22 CL        140.2419  142.6984  166.5927 Cl      1  UNL1       -0.0822
     23 C         139.4671  144.4402  164.8275 C.ar    1  UNL1        0.0127
     24 C         139.2703  144.8383  163.3947 C.ar    1  UNL1        0.0155
     25 C         142.8571  138.5400  157.4586 C.2     1  UNL1        0.0047
     26 C         142.7889  137.6922  156.2231 C.2     1  UNL1        0.0580
     27 C         143.3206  136.2897  156.2456 C.2     1  UNL1        0.2497
     28 O         144.4703  135.9093  155.3605 O.2     1  UNL1       -0.2698
     29 N         142.7026  135.2677  157.1531 N.am    1  UNL1       -0.2794
     30 H         141.9480  135.5174  157.7340 H       1  UNL1        0.1552
     31 C         143.2343  133.8653  157.1755 C.ar    1  UNL1        0.0636
     32 C         144.4630  133.5417  157.9727 C.ar    1  UNL1        0.0159
     33 C         144.9947  132.1392  157.9950 C.ar    1  UNL1        0.0014
     34 C         144.2976  131.0605  157.2201 C.ar    1  UNL1        0.0013
     35 C         143.0689  131.3841  156.4229 C.ar    1  UNL1        0.0153
     36 C         142.5373  132.7866  156.4006 C.ar    1  UNL1        0.0552
     37 N         141.3086  133.1102  155.6034 N.pl3   1  UNL1       -0.3560
     38 H         140.8511  132.4022  155.0948 H       1  UNL1        0.1424
     39 H         140.9597  134.0307  155.5887 H       1  UNL1        0.1424
@<TRIPOS>BOND
     1     8     9    1
     2     9    10    1
     3    10    11    1
     4    11    14    1
     5    14    15    2
     6    14    16   am
     7    16    18    1
     8    18    19   ar
     9    19    20   ar
    10    20    21   ar
    11    21    22    1
    12    21    23   ar
    13    23    24   ar
    14    11    12    1
    15    12     1    1
    16     1     2   ar
    17     2     3   ar
    18     3     4   ar
    19     4    25    1
    20    25    26    2
    21    26    27    1
    22    27    28    2
    23    27    29   am
    24    29    31    1
    25    31    32   ar
    26    32    33   ar
    27    33    34   ar
    28    34    35   ar
    29    35    36   ar
    30    36    37    1
    31     4     5   ar
    32     5     6   ar
    33     6     7    1
    34    12    13    1
    35    13     9    1
    36    24    18   ar
    37     6     1   ar
    38    36    31   ar
    39    16    17    1
    40    29    30    1
    41    37    38    1
    42    37    39    1
@<TRIPOS>MOLECULE
*****
 39 42 0 0 0
SMALL
GASTEIGER

@<TRIPOS>ATOM
      1 C         141.4323  143.2139  156.7344 C.ar    1  UNL1        0.0068
      2 C         142.9254  143.0988  156.6478 C.ar    1  UNL1       -0.0020
      3 C         143.5719  141.7461  156.6024 C.ar    1  UNL1       -0.0002
      4 C         142.7254  140.5084  156.6437 C.ar    1  UNL1        0.0024
      5 C         141.2324  140.6235  156.7303 C.ar    1  UNL1        0.0293
      6 C         140.5859  141.9762  156.7757 C.ar    1  UNL1        0.1362
      7 F         139.0928  142.0914  156.8623 F       1  UNL1       -0.2045
      8 C         139.1841  147.7575  155.2571 C.3     1  UNL1        0.0897
      9 N         139.7523  146.6551  156.1008 N.3     1  UNL1       -0.2708
     10 C         139.8290  146.6414  157.5988 C.3     1  UNL1        0.0816
     11 C         140.4677  145.3507  158.0184 C.3     1  UNL1        0.0981
     12 C         140.7857  144.5666  156.7798 C.3     1  UNL1        0.0505
     13 C         140.3436  145.3728  155.5947 C.3     1  UNL1        0.0771
     14 C         140.7405  144.9197  159.4291 C.2     1  UNL1        0.2274
     15 O         142.1542  144.7880  159.9130 O.2     1  UNL1       -0.2747
     16 N         139.5996  144.6203  160.3558 N.am    1  UNL1       -0.2839
     17 H         138.6718  144.7068  160.0381 H       1  UNL1        0.1549
     18 C         139.8724  144.1893  161.7664 C.ar    1  UNL1        0.0504
     19 C         139.7226  145.1691  162.8923 C.ar    1  UNL1        0.0155
     20 C         139.9953  144.7381  164.3028 C.ar    1  UNL1        0.0127
     21 C         140.4179  143.3273  164.5876 C.ar    1  UNL1        0.0578
     22 CL        140.6906  142.8963  165.9983 Cl      1  UNL1       -0.0822
     23 C         140.5677  142.3475  163.4618 C.ar    1  UNL1        0.0127
     24 C         140.2949  142.7785  162.0512 C.ar    1  UNL1        0.0155
     25 C         143.3721  139.1557  156.5983 C.2     1  UNL1        0.0047
     26 C         142.5845  137.9629  156.1431 C.2     1  UNL1        0.0580
     27 C         143.2311  136.6102  156.0977 C.2     1  UNL1        0.2497
     28 O         144.6757  136.4819  155.7150 O.2     1  UNL1       -0.2698
     29 N         142.4330  135.3857  156.4350 N.am    1  UNL1       -0.2794
     30 H         141.4848  135.4698  156.6862 H       1  UNL1        0.1552
     31 C         143.0796  134.0330  156.3895 C.ar    1  UNL1        0.0636
     32 C         143.0798  133.2443  155.1137 C.ar    1  UNL1        0.0159
     33 C         143.7265  131.8916  155.0683 C.ar    1  UNL1        0.0014
     34 C         144.3729  131.3276  156.2988 C.ar    1  UNL1        0.0013
     35 C         144.3726  132.1164  157.5747 C.ar    1  UNL1        0.0153
     36 C         143.7260  133.4691  157.6200 C.ar    1  UNL1        0.0552
     37 N         143.7257  134.2578  158.8959 N.pl3   1  UNL1       -0.3560
     38 H         144.1500  133.8877  159.7035 H       1  UNL1        0.1424
     39 H         143.3013  135.1456  158.9257 H       1  UNL1        0.1424
@<TRIPOS>BOND
     1     8     9    1
     2     9    10    1
     3    10    11    1
     4    11    14    1
     5    14    15    2
     6    14    16   am
     7    16    18    1
     8    18    19   ar
     9    19    20   ar
    10    20    21   ar
    11    21    22    1
    12    21    23   ar
    13    23    24   ar
    14    11    12    1
    15    12     1    1
    16     1     2   ar
    17     2     3   ar
    18     3     4   ar
    19     4    25    1
    20    25    26    2
    21    26    27    1
    22    27    28    2
    23    27    29   am
    24    29    31    1
    25    31    32   ar
    26    32    33   ar
    27    33    34   ar
    28    34    35   ar
    29    35    36   ar
    30    36    37    1
    31     4     5   ar
    32     5     6   ar
    33     6     7    1
    34    12    13    1
    35    13     9    1
    36    24    18   ar
    37     6     1   ar
    38    36    31   ar
    39    16    17    1
    40    29    30    1
    41    37    38    1
    42    37    39    1
@<TRIPOS>MOLECULE
*****
 39 42 0 0 0
SMALL
GASTEIGER

@<TRIPOS>ATOM
      1 C         142.9906  140.7940  161.3110 C.ar    1  UNL1        0.0068
      2 C         142.0987  140.8667  160.1072 C.ar    1  UNL1       -0.0020
      3 C         141.9995  139.6954  159.1755 C.ar    1  UNL1       -0.0002
      4 C         142.7922  138.4513  159.4475 C.ar    1  UNL1        0.0024
      5 C         143.6841  138.3786  160.6513 C.ar    1  UNL1        0.0293
      6 C         143.7833  139.5499  161.5831 C.ar    1  UNL1        0.1362
      7 F         144.6752  139.4772  162.7869 F       1  UNL1       -0.2045
      8 C         144.1501  145.5473  163.2967 C.3     1  UNL1        0.0897
      9 N         143.6228  144.1501  163.1555 N.3     1  UNL1       -0.2708
     10 C         142.8623  143.3852  164.1980 C.3     1  UNL1        0.0816
     11 C         142.5329  142.0349  163.6338 C.3     1  UNL1        0.0981
     12 C         143.0898  141.9653  162.2428 C.3     1  UNL1        0.0505
     13 C         143.7634  143.2725  161.9472 C.3     1  UNL1        0.0771
     14 C         141.7790  140.9455  164.3373 C.2     1  UNL1        0.2274
     15 O         142.5218  139.9081  165.1260 O.2     1  UNL1       -0.2747
     16 N         140.2824  140.8936  164.2521 N.am    1  UNL1       -0.2839
     17 H         139.7949  141.5744  163.7344 H       1  UNL1        0.1549
     18 C         139.5284  139.8041  164.9556 C.ar    1  UNL1        0.0504
     19 C         139.4320  138.4401  164.3391 C.ar    1  UNL1        0.0155
     20 C         138.6780  137.3508  165.0426 C.ar    1  UNL1        0.0127
     21 C         138.0206  137.6255  166.3626 C.ar    1  UNL1        0.0578
     22 CL        137.2667  136.5361  167.0661 Cl      1  UNL1       -0.0822
     23 C         138.1171  138.9895  166.9791 C.ar    1  UNL1        0.0127
     24 C         138.8710  140.0789  166.2756 C.ar    1  UNL1        0.0155
     25 C         142.6929  137.2800  158.5158 C.2     1  UNL1        0.0047
     26 C         142.8575  137.4809  157.0384 C.2     1  UNL1        0.0580
     27 C         142.7582  136.3097  156.1066 C.2     1  UNL1        0.2497
     28 O         143.9693  135.8466  155.3524 O.2     1  UNL1       -0.2698
     29 N         141.4479  135.6015  155.9289 N.am    1  UNL1       -0.2794
     30 H         140.6530  135.9053  156.4239 H       1  UNL1        0.1552
     31 C         141.3488  134.4303  154.9970 C.ar    1  UNL1        0.0636
     32 C         141.4289  133.0332  155.5371 C.ar    1  UNL1        0.0159
     33 C         141.3297  131.8620  154.6051 C.ar    1  UNL1        0.0014
     34 C         141.1504  132.0879  153.1331 C.ar    1  UNL1        0.0013
     35 C         141.0703  133.4850  152.5931 C.ar    1  UNL1        0.0153
     36 C         141.1695  134.6562  153.5250 C.ar    1  UNL1        0.0552
     37 N         141.0894  136.0533  152.9849 N.pl3   1  UNL1       -0.3560
     38 H         140.9717  136.2016  152.0188 H       1  UNL1        0.1424
     39 H         141.1544  136.8220  153.5966 H       1  UNL1        0.1424
@<TRIPOS>BOND
     1     8     9    1
     2     9    10    1
     3    10    11    1
     4    11    14    1
     5    14    15    2
     6    14    16   am
     7    16    18    1
     8    18    19   ar
     9    19    20   ar
    10    20    21   ar
    11    21    22    1
    12    21    23   ar
    13    23    24   ar
    14    11    12    1
    15    12     1    1
    16     1     2   ar
    17     2     3   ar
    18     3     4   ar
    19     4    25    1
    20    25    26    2
    21    26    27    1
    22    27    28    2
    23    27    29   am
    24    29    31    1
    25    31    32   ar
    26    32    33   ar
    27    33    34   ar
    28    34    35   ar
    29    35    36   ar
    30    36    37    1
    31     4     5   ar
    32     5     6   ar
    33     6     7    1
    34    12    13    1
    35    13     9    1
    36    24    18   ar
    37     6     1   ar
    38    36    31   ar
    39    16    17    1
    40    29    30    1
    41    37    38    1
    42    37    39    1
@<TRIPOS>MOLECULE
*****
 39 42 0 0 0
SMALL
GASTEIGER

@<TRIPOS>ATOM
      1 C         142.6099  139.6856  163.2197 C.ar    1  UNL1        0.0068
      2 C         141.4221  138.9226  162.7128 C.ar    1  UNL1       -0.0020
      3 C         141.5517  138.0548  161.4962 C.ar    1  UNL1       -0.0002
      4 C         142.8690  137.9500  160.7864 C.ar    1  UNL1        0.0024
      5 C         144.0568  138.7130  161.2933 C.ar    1  UNL1        0.0293
      6 C         143.9272  139.5808  162.5099 C.ar    1  UNL1        0.1362
      7 F         145.1150  140.3438  163.0168 F       1  UNL1       -0.2045
      8 C         142.8448  141.4137  168.2036 C.3     1  UNL1        0.0897
      9 N         142.5884  141.3477  166.7272 N.3     1  UNL1       -0.2708
     10 C         141.9739  142.4300  165.8897 C.3     1  UNL1        0.0816
     11 C         141.9072  141.9390  164.4739 C.3     1  UNL1        0.0981
     12 C         142.4804  140.5534  164.4363 C.3     1  UNL1        0.0505
     13 C         142.9014  140.1879  165.8288 C.3     1  UNL1        0.0771
     14 C         141.3628  142.7001  163.3015 C.2     1  UNL1        0.2274
     15 O         139.8900  142.9644  163.1975 O.2     1  UNL1       -0.2747
     16 N         142.2913  143.1969  162.2333 N.am    1  UNL1       -0.2839
     17 H         143.2579  143.0234  162.3016 H       1  UNL1        0.1549
     18 C         141.7469  143.9580  161.0609 C.ar    1  UNL1        0.0504
     19 C         142.1481  143.5760  159.6670 C.ar    1  UNL1        0.0155
     20 C         141.6037  144.3371  158.4947 C.ar    1  UNL1        0.0127
     21 C         140.6581  145.4802  158.7164 C.ar    1  UNL1        0.0578
     22 CL        140.1137  146.2413  157.5440 Cl      1  UNL1       -0.0822
     23 C         140.2568  145.8622  160.1103 C.ar    1  UNL1        0.0127
     24 C         140.8012  145.1011  161.2825 C.ar    1  UNL1        0.0155
     25 C         142.9985  137.0822  159.5698 C.2     1  UNL1        0.0047
     26 C         142.5543  137.5952  158.2320 C.2     1  UNL1        0.0580
     27 C         142.6837  136.7275  157.0154 C.2     1  UNL1        0.2497
     28 O         144.0192  136.5578  156.3538 O.2     1  UNL1       -0.2698
     29 N         141.4777  136.0293  156.4602 N.am    1  UNL1       -0.2794
     30 H         140.6011  136.1406  156.8944 H       1  UNL1        0.1552
     31 C         141.6072  135.1616  155.2436 C.ar    1  UNL1        0.0636
     32 C         141.0630  135.6303  153.9267 C.ar    1  UNL1        0.0159
     33 C         141.1926  134.7625  152.7101 C.ar    1  UNL1        0.0014
     34 C         141.8663  133.4261  152.8103 C.ar    1  UNL1        0.0013
     35 C         142.4105  132.9574  154.1272 C.ar    1  UNL1        0.0153
     36 C         142.2810  133.8252  155.3438 C.ar    1  UNL1        0.0552
     37 N         142.8252  133.3565  156.6607 N.pl3   1  UNL1       -0.3560
     38 H         143.2674  132.4794  156.7265 H       1  UNL1        0.1424
     39 H         142.7401  133.9261  157.4593 H       1  UNL1        0.1424
@<TRIPOS>BOND
     1     8     9    1
     2     9    10    1
     3    10    11    1
     4    11    14    1
     5    14    15    2
     6    14    16   am
     7    16    18    1
     8    18    19   ar
     9    19    20   ar
    10    20    21   ar
    11    21    22    1
    12    21    23   ar
    13    23    24   ar
    14    11    12    1
    15    12     1    1
    16     1     2   ar
    17     2     3   ar
    18     3     4   ar
    19     4    25    1
    20    25    26    2
    21    26    27    1
    22    27    28    2
    23    27    29   am
    24    29    31    1
    25    31    32   ar
    26    32    33   ar
    27    33    34   ar
    28    34    35   ar
    29    35    36   ar
    30    36    37    1
    31     4     5   ar
    32     5     6   ar
    33     6     7    1
    34    12    13    1
    35    13     9    1
    36    24    18   ar
    37     6     1   ar
    38    36    31   ar
    39    16    17    1
    40    29    30    1
    41    37    38    1
    42    37    39    1
@<TRIPOS>MOLECULE
*****
 39 42 0 0 0
SMALL
GASTEIGER

@<TRIPOS>ATOM
      1 C         141.7577  140.7115  158.6037 C.ar    1  UNL1        0.0068
      2 C         140.8988  140.0339  157.5774 C.ar    1  UNL1       -0.0020
      3 C         141.1864  138.6176  157.1757 C.ar    1  UNL1       -0.0002
      4 C         142.3328  137.8789  157.8002 C.ar    1  UNL1        0.0024
      5 C         143.1917  138.5564  158.8264 C.ar    1  UNL1        0.0293
      6 C         142.9041  139.9727  159.2281 C.ar    1  UNL1        0.1362
      7 F         143.7630  140.6503  160.2544 F       1  UNL1       -0.2045
      8 C         141.2350  145.9639  158.4630 C.3     1  UNL1        0.0897
      9 N         141.2299  144.5421  158.9408 N.3     1  UNL1       -0.2708
     10 C         140.8255  144.0724  160.3069 C.3     1  UNL1        0.0816
     11 C         140.9741  142.5803  160.3467 C.3     1  UNL1        0.0981
     12 C         141.4702  142.1278  159.0054 C.3     1  UNL1        0.0505
     13 C         141.6283  143.3402  158.1365 C.3     1  UNL1        0.0771
     14 C         140.6783  141.6959  161.5217 C.2     1  UNL1        0.2274
     15 O         141.6891  141.5446  162.6197 O.2     1  UNL1       -0.2747
     16 N         139.3719  140.9630  161.5988 N.am    1  UNL1       -0.2839
     17 H         138.7085  141.0623  160.8782 H       1  UNL1        0.1549
     18 C         139.0762  140.0787  162.7738 C.ar    1  UNL1        0.0504
     19 C         138.5576  140.6743  164.0490 C.ar    1  UNL1        0.0155
     20 C         138.2619  139.7899  165.2239 C.ar    1  UNL1        0.0127
     21 C         138.4848  138.3100  165.1236 C.ar    1  UNL1        0.0578
     22 CL        138.1890  137.4256  166.2986 Cl      1  UNL1       -0.0822
     23 C         139.0033  137.7144  163.8484 C.ar    1  UNL1        0.0127
     24 C         139.2990  138.5987  162.6735 C.ar    1  UNL1        0.0155
     25 C         142.6203  136.4626  157.3984 C.2     1  UNL1        0.0047
     26 C         142.3131  136.0014  156.0045 C.2     1  UNL1        0.0580
     27 C         142.6006  134.5852  155.6026 C.2     1  UNL1        0.2497
     28 O         142.7110  134.2253  154.1506 O.2     1  UNL1       -0.2698
     29 N         142.7777  133.5287  156.6526 N.am    1  UNL1       -0.2794
     30 H         142.7052  133.7648  157.6056 H       1  UNL1        0.1552
     31 C         143.0651  132.1125  156.2507 C.ar    1  UNL1        0.0636
     32 C         141.9629  131.2454  155.7183 C.ar    1  UNL1        0.0159
     33 C         142.2505  129.8292  155.3163 C.ar    1  UNL1        0.0014
     34 C         143.6403  129.2800  155.4467 C.ar    1  UNL1        0.0013
     35 C         144.7424  130.1470  155.9791 C.ar    1  UNL1        0.0153
     36 C         144.4549  131.5633  156.3811 C.ar    1  UNL1        0.0552
     37 N         145.5571  132.4303  156.9134 N.pl3   1  UNL1       -0.3560
     38 H         146.4692  132.0698  156.9990 H       1  UNL1        0.1424
     39 H         145.3683  133.3598  157.1772 H       1  UNL1        0.1424
@<TRIPOS>BOND
     1     8     9    1
     2     9    10    1
     3    10    11    1
     4    11    14    1
     5    14    15    2
     6    14    16   am
     7    16    18    1
     8    18    19   ar
     9    19    20   ar
    10    20    21   ar
    11    21    22    1
    12    21    23   ar
    13    23    24   ar
    14    11    12    1
    15    12     1    1
    16     1     2   ar
    17     2     3   ar
    18     3     4   ar
    19     4    25    1
    20    25    26    2
    21    26    27    1
    22    27    28    2
    23    27    29   am
    24    29    31    1
    25    31    32   ar
    26    32    33   ar
    27    33    34   ar
    28    34    35   ar
    29    35    36   ar
    30    36    37    1
    31     4     5   ar
    32     5     6   ar
    33     6     7    1
    34    12    13    1
    35    13     9    1
    36    24    18   ar
    37     6     1   ar
    38    36    31   ar
    39    16    17    1
    40    29    30    1
    41    37    38    1
    42    37    39    1
