@<TRIPOS>MOLECULE
*****
 41 45 0 0 0
SMALL
GASTEIGER

@<TRIPOS>ATOM
      1 C         140.3547  138.4536  158.2571 C.2     1  UNL1        0.2458
      2 O         139.0592  138.5720  157.5104 O.2     1  UNL1       -0.2701
      3 N         141.5478  137.8304  157.5951 N.am    1  UNL1       -0.3009
      4 H         142.3981  137.7527  158.0852 H       1  UNL1        0.1497
      5 C         140.6620  139.9679  162.4835 C.ar    1  UNL1        0.0536
      6 C         139.4853  139.1351  162.0689 C.ar    1  UNL1        0.0048
      7 C         139.3829  138.6304  160.6601 C.ar    1  UNL1        0.0047
      8 C         140.4572  138.9583  159.6659 C.ar    1  UNL1        0.0534
      9 C         141.6338  139.7911  160.0805 C.ar    1  UNL1        0.0047
     10 C         141.7362  140.2959  161.4894 C.ar    1  UNL1        0.0048
     11 C         141.8195  140.4798  167.6539 C.ar    1  UNL1        0.0143
     12 C         141.5038  141.5203  168.6871 C.ar    1  UNL1        0.0091
     13 C         140.6951  142.7270  168.3136 C.ar    1  UNL1        0.0698
     14 C         140.2020  142.8933  166.9067 C.ar    1  UNL1        0.0326
     15 C         140.5177  141.8528  165.8734 C.ar    1  UNL1        0.1192
     16 N         140.1703  141.7457  164.4182 N.ar    1  UNL1       -0.2082
     17 C         140.7644  140.4727  163.8923 C.ar    1  UNL1        0.2296
     18 O         141.4789  139.7930  165.0226 O.2     1  UNL1       -0.4349
     19 C         141.3264  140.6460  166.2470 C.ar    1  UNL1        0.1607
     20 C         142.7001  138.8322  169.4594 C.3     1  UNL1        0.0048
     21 C         142.6283  139.2730  168.0275 C.3     1  UNL1        0.0254
     22 C         143.3653  138.5070  166.9690 C.3     1  UNL1        0.0048
     23 C         140.3794  143.7676  169.3469 C.1     1  UNL1        0.1005
     24 N         140.0638  144.8082  170.3801 N.1     1  UNL1       -0.1908
     25 C         141.4454  137.3256  156.1863 C.3     1  UNL1        0.0896
     26 C         141.9913  135.9741  155.8323 C.3     1  UNL1        0.0196
     27 C         141.2952  135.1292  154.8068 C.3     1  UNL1        0.0020
     28 C         141.8411  133.7777  154.4528 C.3     1  UNL1        0.0044
     29 C         143.0831  133.2710  155.1243 C.3     1  UNL1        0.0223
     30 C         143.7791  134.1160  156.1499 C.3     1  UNL1        0.0044
     31 C         143.2332  135.4675  156.5039 C.3     1  UNL1        0.0020
     32 C         143.6290  131.9195  154.7703 C.ar    1  UNL1       -0.0225
     33 C         144.3892  131.1266  155.7917 C.ar    1  UNL1       -0.0043
     34 C         144.9351  129.7750  155.4378 C.ar    1  UNL1        0.0035
     35 C         144.7207  129.2164  154.0622 C.ar    1  UNL1        0.0714
     36 C         143.9605  130.0093  153.0408 C.ar    1  UNL1        0.0035
     37 C         143.4146  131.3608  153.3948 C.ar    1  UNL1       -0.0043
     38 C         145.2666  127.8649  153.7082 C.3     1  UNL1        0.4186
     39 F         145.8125  126.5133  153.3543 F       1  UNL1       -0.1659
     40 F         145.2909  128.2540  152.2597 F       1  UNL1       -0.1659
     41 F         145.2424  127.4757  155.1567 F       1  UNL1       -0.1659
@<TRIPOS>BOND
     1    20    21    1
     2    21    22    1
     3    21    11    1
     4    11    12   ar
     5    12    13   ar
     6    13    23    1
     7    23    24    3
     8    13    14   ar
     9    14    15   ar
    10    15    16   ar
    11    16    17   ar
    12    17     5    1
    13     5     6   ar
    14     6     7   ar
    15     7     8   ar
    16     8     1    1
    17     1     2    2
    18     1     3   am
    19     3    25    1
    20    26    25    1
    21    26    27    1
    22    27    28    1
    23    28    29    1
    24    29    32    1
    25    32    33   ar
    26    33    34   ar
    27    34    35   ar
    28    35    38    1
    29    38    39    1
    30    38    40    1
    31    38    41    1
    32    35    36   ar
    33    36    37   ar
    34    29    30    1
    35    30    31    1
    36     8     9   ar
    37     9    10   ar
    38    17    18   ar
    39    18    19   ar
    40    19    11   ar
    41    19    15   ar
    42    10     5   ar
    43    31    26    1
    44    37    32   ar
    45     3     4    1
@<TRIPOS>MOLECULE
*****
 41 45 0 0 0
SMALL
GASTEIGER

@<TRIPOS>ATOM
      1 C         142.3695  138.5985  158.4012 C.2     1  UNL1        0.2458
      2 O         143.5964  138.9255  157.6028 O.2     1  UNL1       -0.2701
      3 N         141.2449  137.8335  157.7688 N.am    1  UNL1       -0.3009
      4 H         140.4395  137.6189  158.2929 H       1  UNL1        0.1497
      5 C         142.0623  139.9130  162.6940 C.ar    1  UNL1        0.0536
      6 C         141.8793  140.9109  161.5892 C.ar    1  UNL1        0.0048
      7 C         141.9817  140.4726  160.1582 C.ar    1  UNL1        0.0047
      8 C         142.2671  139.0366  159.8321 C.ar    1  UNL1        0.0534
      9 C         142.4501  138.0387  160.9370 C.ar    1  UNL1        0.0047
     10 C         142.3478  138.4769  162.3679 C.ar    1  UNL1        0.0048
     11 C         140.4412  140.6244  167.7140 C.ar    1  UNL1        0.0143
     12 C         140.9888  141.3939  168.8793 C.ar    1  UNL1        0.0091
     13 C         142.2613  142.1741  168.7315 C.ar    1  UNL1        0.0698
     14 C         142.9863  142.1848  167.4183 C.ar    1  UNL1        0.0326
     15 C         142.4387  141.4153  166.2530 C.ar    1  UNL1        0.1192
     16 N         142.9293  141.2398  164.8464 N.ar    1  UNL1       -0.2082
     17 C         141.9600  140.3511  164.1250 C.ar    1  UNL1        0.2296
     18 O         140.8703  139.9774  165.0856 O.2     1  UNL1       -0.4349
     19 C         141.1661  140.6351  166.4008 C.ar    1  UNL1        0.1607
     20 C         138.5650  139.1611  166.6706 C.3     1  UNL1        0.0048
     21 C         139.1686  139.8442  167.8618 C.3     1  UNL1        0.0254
     22 C         138.4996  139.7471  169.2010 C.3     1  UNL1        0.0048
     23 C         142.8090  142.9437  169.8968 C.1     1  UNL1        0.1005
     24 N         143.3566  143.7132  171.0621 N.1     1  UNL1       -0.1908
     25 C         141.3472  137.3954  156.3378 C.3     1  UNL1        0.0896
     26 C         141.9204  136.0499  156.0046 C.3     1  UNL1        0.0196
     27 C         141.2191  135.1580  155.0235 C.3     1  UNL1        0.0020
     28 C         141.7923  133.8125  154.6902 C.3     1  UNL1        0.0044
     29 C         143.0669  133.3589  155.3381 C.3     1  UNL1        0.0223
     30 C         143.7683  134.2509  156.3192 C.3     1  UNL1        0.0044
     31 C         143.1951  135.5964  156.6525 C.3     1  UNL1        0.0020
     32 C         143.6401  132.0134  155.0048 C.ar    1  UNL1       -0.0225
     33 C         144.4851  131.2883  156.0099 C.ar    1  UNL1       -0.0043
     34 C         145.0583  129.9428  155.6767 C.ar    1  UNL1        0.0035
     35 C         144.7866  129.3225  154.3382 C.ar    1  UNL1        0.0714
     36 C         143.9416  130.0476  153.3331 C.ar    1  UNL1        0.0035
     37 C         143.3684  131.3931  153.6664 C.ar    1  UNL1       -0.0043
     38 C         145.3598  127.9770  154.0049 C.3     1  UNL1        0.4186
     39 F         145.9330  126.6315  153.6717 F       1  UNL1       -0.1659
     40 F         144.8210  128.0929  152.6098 F       1  UNL1       -0.1659
     41 F         145.8985  127.8610  155.4000 F       1  UNL1       -0.1659
@<TRIPOS>BOND
     1    20    21    1
     2    21    22    1
     3    21    11    1
     4    11    12   ar
     5    12    13   ar
     6    13    23    1
     7    23    24    3
     8    13    14   ar
     9    14    15   ar
    10    15    16   ar
    11    16    17   ar
    12    17     5    1
    13     5     6   ar
    14     6     7   ar
    15     7     8   ar
    16     8     1    1
    17     1     2    2
    18     1     3   am
    19     3    25    1
    20    26    25    1
    21    26    27    1
    22    27    28    1
    23    28    29    1
    24    29    32    1
    25    32    33   ar
    26    33    34   ar
    27    34    35   ar
    28    35    38    1
    29    38    39    1
    30    38    40    1
    31    38    41    1
    32    35    36   ar
    33    36    37   ar
    34    29    30    1
    35    30    31    1
    36     8     9   ar
    37     9    10   ar
    38    17    18   ar
    39    18    19   ar
    40    19    11   ar
    41    19    15   ar
    42    10     5   ar
    43    31    26    1
    44    37    32   ar
    45     3     4    1
@<TRIPOS>MOLECULE
*****
 41 45 0 0 0
SMALL
GASTEIGER

@<TRIPOS>ATOM
      1 C         143.0266  140.0127  158.0073 C.2     1  UNL1        0.2458
      2 O         143.7064  138.7701  157.5138 O.2     1  UNL1       -0.2701
      3 N         142.8092  141.1688  157.0767 N.am    1  UNL1       -0.3009
      4 H         142.3630  141.9844  157.4007 H       1  UNL1        0.1497
      5 C         141.6393  140.2722  162.2803 C.ar    1  UNL1        0.0536
      6 C         142.9516  139.6221  161.9560 C.ar    1  UNL1        0.0048
      7 C         143.4139  139.5356  160.5316 C.ar    1  UNL1        0.0047
      8 C         142.5641  140.0992  159.4316 C.ar    1  UNL1        0.0534
      9 C         141.2518  140.7494  159.7559 C.ar    1  UNL1        0.0047
     10 C         140.7894  140.8358  161.1803 C.ar    1  UNL1        0.0048
     11 C         139.1381  139.4098  166.8993 C.ar    1  UNL1        0.0143
     12 C         139.2009  140.0631  168.2480 C.ar    1  UNL1        0.0091
     13 C         140.1274  141.2200  168.4786 C.ar    1  UNL1        0.0698
     14 C         140.9912  141.7236  167.3604 C.ar    1  UNL1        0.0326
     15 C         140.9284  141.0702  166.0117 C.ar    1  UNL1        0.1192
     16 N         141.6546  141.3455  164.7283 N.ar    1  UNL1       -0.2082
     17 C         141.1768  140.3587  163.7046 C.ar    1  UNL1        0.2296
     18 O         140.1554  139.4736  164.3552 O.2     1  UNL1       -0.4349
     19 C         140.0019  139.9133  165.7811 C.ar    1  UNL1        0.1607
     20 C         137.0373  138.0398  167.5774 C.3     1  UNL1        0.0048
     21 C         138.2116  138.2529  166.6687 C.3     1  UNL1        0.0254
     22 C         138.4594  137.3090  165.5294 C.3     1  UNL1        0.0048
     23 C         140.1901  141.8734  169.8275 C.1     1  UNL1        0.1005
     24 N         140.2529  142.5267  171.1762 N.1     1  UNL1       -0.1908
     25 C         143.2716  141.0823  155.6523 C.3     1  UNL1        0.0896
     26 C         144.6911  141.4186  155.3029 C.3     1  UNL1        0.0196
     27 C         145.6554  141.8142  156.3816 C.3     1  UNL1        0.0020
     28 C         147.0749  142.1505  156.0322 C.3     1  UNL1        0.0044
     29 C         147.5300  142.0910  154.6041 C.3     1  UNL1        0.0223
     30 C         146.5656  141.6953  153.5254 C.3     1  UNL1        0.0044
     31 C         145.1461  141.3591  153.8748 C.3     1  UNL1        0.0020
     32 C         148.9494  142.4273  154.2547 C.ar    1  UNL1       -0.0225
     33 C         149.2393  143.4447  153.1913 C.ar    1  UNL1       -0.0043
     34 C         150.6587  143.7809  152.8419 C.ar    1  UNL1        0.0035
     35 C         151.7884  143.0996  153.5559 C.ar    1  UNL1        0.0714
     36 C         151.4985  142.0822  154.6193 C.ar    1  UNL1        0.0035
     37 C         150.0791  141.7460  154.9687 C.ar    1  UNL1       -0.0043
     38 C         153.2078  143.4359  153.2065 C.3     1  UNL1        0.4186
     39 F         154.6273  143.7721  152.8571 F       1  UNL1       -0.1659
     40 F         152.7824  144.8181  152.8083 F       1  UNL1       -0.1659
     41 F         153.6332  142.0537  153.6048 F       1  UNL1       -0.1659
@<TRIPOS>BOND
     1    20    21    1
     2    21    22    1
     3    21    11    1
     4    11    12   ar
     5    12    13   ar
     6    13    23    1
     7    23    24    3
     8    13    14   ar
     9    14    15   ar
    10    15    16   ar
    11    16    17   ar
    12    17     5    1
    13     5     6   ar
    14     6     7   ar
    15     7     8   ar
    16     8     1    1
    17     1     2    2
    18     1     3   am
    19     3    25    1
    20    26    25    1
    21    26    27    1
    22    27    28    1
    23    28    29    1
    24    29    32    1
    25    32    33   ar
    26    33    34   ar
    27    34    35   ar
    28    35    38    1
    29    38    39    1
    30    38    40    1
    31    38    41    1
    32    35    36   ar
    33    36    37   ar
    34    29    30    1
    35    30    31    1
    36     8     9   ar
    37     9    10   ar
    38    17    18   ar
    39    18    19   ar
    40    19    11   ar
    41    19    15   ar
    42    10     5   ar
    43    31    26    1
    44    37    32   ar
    45     3     4    1
@<TRIPOS>MOLECULE
*****
 41 45 0 0 0
SMALL
GASTEIGER

@<TRIPOS>ATOM
      1 C         143.8137  139.4341  156.3298 C.2     1  UNL1        0.2458
      2 O         144.4886  138.1773  155.8664 O.2     1  UNL1       -0.2701
      3 N         143.8214  140.6548  155.4582 N.am    1  UNL1       -0.3009
      4 H         143.3783  141.4797  155.7625 H       1  UNL1        0.1497
      5 C         141.7654  139.5420  160.3353 C.ar    1  UNL1        0.0536
      6 C         141.2853  138.5986  159.2726 C.ar    1  UNL1        0.0048
      7 C         141.9681  138.5626  157.9374 C.ar    1  UNL1        0.0047
      8 C         143.1309  139.4701  157.6650 C.ar    1  UNL1        0.0534
      9 C         143.6111  140.4135  158.7277 C.ar    1  UNL1        0.0047
     10 C         142.9283  140.4495  160.0628 C.ar    1  UNL1        0.0048
     11 C         140.0531  141.0058  165.1581 C.ar    1  UNL1        0.0143
     12 C         139.1557  140.3664  166.1759 C.ar    1  UNL1        0.0091
     13 C         138.5436  139.0254  165.8991 C.ar    1  UNL1        0.0698
     14 C         138.8288  138.3235  164.6044 C.ar    1  UNL1        0.0326
     15 C         139.7261  138.9629  163.5865 C.ar    1  UNL1        0.1192
     16 N         140.1862  138.5142  162.2312 N.ar    1  UNL1       -0.2082
     17 C         141.0827  139.5780  161.6704 C.ar    1  UNL1        0.2296
     18 O         141.1767  140.6842  162.6791 O.2     1  UNL1       -0.4349
     19 C         140.3382  140.3041  163.8634 C.ar    1  UNL1        0.1607
     20 C         142.1234  142.4509  165.7709 C.3     1  UNL1        0.0048
     21 C         140.6652  142.3469  165.4349 C.3     1  UNL1        0.0254
     22 C         139.8191  143.5842  165.3758 C.3     1  UNL1        0.0048
     23 C         137.6462  138.3860  166.9170 C.1     1  UNL1        0.1005
     24 N         136.7489  137.7466  167.9348 N.1     1  UNL1       -0.1908
     25 C         144.5041  140.6188  154.1231 C.3     1  UNL1        0.0896
     26 C         145.9306  141.0653  153.9979 C.3     1  UNL1        0.0196
     27 C         146.6878  141.5070  155.2151 C.3     1  UNL1        0.0020
     28 C         148.1143  141.9535  155.0898 C.3     1  UNL1        0.0044
     29 C         148.7836  141.9582  153.7475 C.3     1  UNL1        0.0223
     30 C         148.0264  141.5165  152.5302 C.3     1  UNL1        0.0044
     31 C         146.5999  141.0700  152.6554 C.3     1  UNL1        0.0020
     32 C         150.2102  142.4047  153.6222 C.ar    1  UNL1       -0.0225
     33 C         150.5239  143.7766  153.1033 C.ar    1  UNL1       -0.0043
     34 C         151.9504  144.2231  152.9781 C.ar    1  UNL1        0.0035
     35 C         153.0633  143.2975  153.3719 C.ar    1  UNL1        0.0714
     36 C         152.7495  141.9256  153.8908 C.ar    1  UNL1        0.0035
     37 C         151.3230  141.4791  154.0160 C.ar    1  UNL1       -0.0043
     38 C         154.4898  143.7440  153.2467 C.3     1  UNL1        0.4186
     39 F         155.9163  144.1904  153.1215 F       1  UNL1       -0.1659
     40 F         154.9237  142.6015  154.1166 F       1  UNL1       -0.1659
     41 F         154.0559  144.8863  152.3768 F       1  UNL1       -0.1659
@<TRIPOS>BOND
     1    20    21    1
     2    21    22    1
     3    21    11    1
     4    11    12   ar
     5    12    13   ar
     6    13    23    1
     7    23    24    3
     8    13    14   ar
     9    14    15   ar
    10    15    16   ar
    11    16    17   ar
    12    17     5    1
    13     5     6   ar
    14     6     7   ar
    15     7     8   ar
    16     8     1    1
    17     1     2    2
    18     1     3   am
    19     3    25    1
    20    26    25    1
    21    26    27    1
    22    27    28    1
    23    28    29    1
    24    29    32    1
    25    32    33   ar
    26    33    34   ar
    27    34    35   ar
    28    35    38    1
    29    38    39    1
    30    38    40    1
    31    38    41    1
    32    35    36   ar
    33    36    37   ar
    34    29    30    1
    35    30    31    1
    36     8     9   ar
    37     9    10   ar
    38    17    18   ar
    39    18    19   ar
    40    19    11   ar
    41    19    15   ar
    42    10     5   ar
    43    31    26    1
    44    37    32   ar
    45     3     4    1
@<TRIPOS>MOLECULE
*****
 41 45 0 0 0
SMALL
GASTEIGER

@<TRIPOS>ATOM
      1 C         142.8579  139.3391  158.4444 C.2     1  UNL1        0.2458
      2 O         143.3312  138.0118  157.9304 O.2     1  UNL1       -0.2701
      3 N         142.7979  140.5219  157.5239 N.am    1  UNL1       -0.3009
      4 H         142.4872  141.3930  157.8614 H       1  UNL1        0.1497
      5 C         141.6176  139.7723  162.7485 C.ar    1  UNL1        0.0536
      6 C         140.5760  139.6317  161.6783 C.ar    1  UNL1        0.0048
      7 C         140.9895  139.4872  160.2437 C.ar    1  UNL1        0.0047
      8 C         142.4445  139.4835  159.8791 C.ar    1  UNL1        0.0534
      9 C         143.4861  139.6242  160.9492 C.ar    1  UNL1        0.0047
     10 C         143.0726  139.7686  162.3839 C.ar    1  UNL1        0.0048
     11 C         141.4695  141.0274  167.9193 C.ar    1  UNL1        0.0143
     12 C         140.4819  140.7708  169.0187 C.ar    1  UNL1        0.0091
     13 C         139.2227  140.0076  168.7328 C.ar    1  UNL1        0.0698
     14 C         138.9510  139.5008  167.3473 C.ar    1  UNL1        0.0326
     15 C         139.9386  139.7574  166.2478 C.ar    1  UNL1        0.1192
     16 N         139.9426  139.3841  164.7950 N.ar    1  UNL1       -0.2082
     17 C         141.2043  139.9168  164.1831 C.ar    1  UNL1        0.2296
     18 O         141.9801  140.6192  165.2577 O.2     1  UNL1       -0.4349
     19 C         141.1978  140.5207  166.5338 C.ar    1  UNL1        0.1607
     20 C         143.3917  142.5793  167.1151 C.3     1  UNL1        0.0048
     21 C         142.7287  141.7906  168.2052 C.3     1  UNL1        0.0254
     22 C         143.3249  141.7653  169.5815 C.3     1  UNL1        0.0048
     23 C         138.2351  139.7510  169.8323 C.1     1  UNL1        0.1005
     24 N         137.2475  139.4945  170.9318 N.1     1  UNL1       -0.1908
     25 C         143.2112  140.3774  156.0892 C.3     1  UNL1        0.0896
     26 C         144.5722  140.8315  155.6515 C.3     1  UNL1        0.0196
     27 C         145.0325  140.5753  154.2471 C.3     1  UNL1        0.0020
     28 C         146.3935  141.0293  153.8093 C.3     1  UNL1        0.0044
     29 C         147.2941  141.7395  154.7760 C.3     1  UNL1        0.0223
     30 C         146.8337  141.9957  156.1805 C.3     1  UNL1        0.0044
     31 C         145.4728  141.5417  156.6183 C.3     1  UNL1        0.0020
     32 C         148.6551  142.1936  154.3383 C.ar    1  UNL1       -0.0225
     33 C         148.7919  143.1789  153.2156 C.ar    1  UNL1       -0.0043
     34 C         150.1529  143.6329  152.7779 C.ar    1  UNL1        0.0035
     35 C         151.3770  143.1016  153.4629 C.ar    1  UNL1        0.0714
     36 C         151.2402  142.1163  154.5856 C.ar    1  UNL1        0.0035
     37 C         149.8792  141.6623  155.0233 C.ar    1  UNL1       -0.0043
     38 C         152.7380  143.5556  153.0252 C.3     1  UNL1        0.4186
     39 F         154.0990  144.0096  152.5874 F       1  UNL1       -0.1659
     40 F         152.5225  144.8690  153.7172 F       1  UNL1       -0.1659
     41 F         152.9536  142.2423  152.3332 F       1  UNL1       -0.1659
@<TRIPOS>BOND
     1    20    21    1
     2    21    22    1
     3    21    11    1
     4    11    12   ar
     5    12    13   ar
     6    13    23    1
     7    23    24    3
     8    13    14   ar
     9    14    15   ar
    10    15    16   ar
    11    16    17   ar
    12    17     5    1
    13     5     6   ar
    14     6     7   ar
    15     7     8   ar
    16     8     1    1
    17     1     2    2
    18     1     3   am
    19     3    25    1
    20    26    25    1
    21    26    27    1
    22    27    28    1
    23    28    29    1
    24    29    32    1
    25    32    33   ar
    26    33    34   ar
    27    34    35   ar
    28    35    38    1
    29    38    39    1
    30    38    40    1
    31    38    41    1
    32    35    36   ar
    33    36    37   ar
    34    29    30    1
    35    30    31    1
    36     8     9   ar
    37     9    10   ar
    38    17    18   ar
    39    18    19   ar
    40    19    11   ar
    41    19    15   ar
    42    10     5   ar
    43    31    26    1
    44    37    32   ar
    45     3     4    1
@<TRIPOS>MOLECULE
*****
 41 45 0 0 0
SMALL
GASTEIGER

@<TRIPOS>ATOM
      1 C         143.6839  139.1408  157.9594 C.2     1  UNL1        0.2458
      2 O         144.6821  139.8922  157.1295 O.2     1  UNL1       -0.2701
      3 N         143.0604  137.8844  157.4277 N.am    1  UNL1       -0.3009
      4 H         142.4053  137.3912  157.9725 H       1  UNL1        0.1497
      5 C         142.5593  140.6561  162.0447 C.ar    1  UNL1        0.0536
      6 C         141.8081  141.1301  160.8360 C.ar    1  UNL1        0.0048
      7 C         142.1830  140.6249  159.4743 C.ar    1  UNL1        0.0047
      8 C         143.3090  139.6459  159.3212 C.ar    1  UNL1        0.0534
      9 C         144.0603  139.1719  160.5299 C.ar    1  UNL1        0.0047
     10 C         143.6854  139.6771  161.8917 C.ar    1  UNL1        0.0048
     11 C         140.0594  143.0237  166.1042 C.ar    1  UNL1        0.0143
     12 C         140.3467  143.1373  167.5720 C.ar    1  UNL1        0.0091
     13 C         141.5702  142.4895  168.1491 C.ar    1  UNL1        0.0698
     14 C         142.5068  141.7281  167.2584 C.ar    1  UNL1        0.0326
     15 C         142.2195  141.6146  165.7905 C.ar    1  UNL1        0.1192
     16 N         142.9542  140.9340  164.6738 N.ar    1  UNL1       -0.2082
     17 C         142.1845  141.1612  163.4065 C.ar    1  UNL1        0.2296
     18 O         140.9742  141.9822  163.7400 O.2     1  UNL1       -0.4349
     19 C         140.9959  142.2624  165.2134 C.ar    1  UNL1        0.1607
     20 C         137.9063  142.8779  164.6576 C.3     1  UNL1        0.0048
     21 C         138.8358  143.6716  165.5271 C.3     1  UNL1        0.0254
     22 C         138.5417  145.1132  165.8195 C.3     1  UNL1        0.0048
     23 C         141.8575  142.6030  169.6171 C.1     1  UNL1        0.1005
     24 N         142.1447  142.7165  171.0849 N.1     1  UNL1       -0.1908
     25 C         143.4353  137.3793  156.0660 C.3     1  UNL1        0.0896
     26 C         142.9879  136.0183  155.6215 C.3     1  UNL1        0.0196
     27 C         142.5577  135.7968  154.2017 C.3     1  UNL1        0.0020
     28 C         142.1104  134.4358  153.7573 C.3     1  UNL1        0.0044
     29 C         142.0933  133.2963  154.7326 C.3     1  UNL1        0.0223
     30 C         142.5236  133.5178  156.1525 C.3     1  UNL1        0.0044
     31 C         142.9709  134.8788  156.5969 C.3     1  UNL1        0.0020
     32 C         141.6460  131.9352  154.2882 C.ar    1  UNL1       -0.0225
     33 C         141.6868  130.7822  155.2466 C.ar    1  UNL1       -0.0043
     34 C         141.2395  129.4212  154.8022 C.ar    1  UNL1        0.0035
     35 C         140.7513  129.2133  153.3991 C.ar    1  UNL1        0.0714
     36 C         140.7105  130.3663  152.4406 C.ar    1  UNL1        0.0035
     37 C         141.1578  131.7274  152.8851 C.ar    1  UNL1       -0.0043
     38 C         140.3040  127.8523  152.9547 C.3     1  UNL1        0.4186
     39 F         139.8567  126.4913  152.5102 F       1  UNL1       -0.1659
     40 F         141.4320  127.8040  151.9670 F       1  UNL1       -0.1659
     41 F         139.1760  127.9005  153.9422 F       1  UNL1       -0.1659
@<TRIPOS>BOND
     1    20    21    1
     2    21    22    1
     3    21    11    1
     4    11    12   ar
     5    12    13   ar
     6    13    23    1
     7    23    24    3
     8    13    14   ar
     9    14    15   ar
    10    15    16   ar
    11    16    17   ar
    12    17     5    1
    13     5     6   ar
    14     6     7   ar
    15     7     8   ar
    16     8     1    1
    17     1     2    2
    18     1     3   am
    19     3    25    1
    20    26    25    1
    21    26    27    1
    22    27    28    1
    23    28    29    1
    24    29    32    1
    25    32    33   ar
    26    33    34   ar
    27    34    35   ar
    28    35    38    1
    29    38    39    1
    30    38    40    1
    31    38    41    1
    32    35    36   ar
    33    36    37   ar
    34    29    30    1
    35    30    31    1
    36     8     9   ar
    37     9    10   ar
    38    17    18   ar
    39    18    19   ar
    40    19    11   ar
    41    19    15   ar
    42    10     5   ar
    43    31    26    1
    44    37    32   ar
    45     3     4    1
@<TRIPOS>MOLECULE
*****
 41 45 0 0 0
SMALL
GASTEIGER

@<TRIPOS>ATOM
      1 C         139.3883  139.2913  155.3554 C.2     1  UNL1        0.2458
      2 O         140.3427  139.9707  156.2921 O.2     1  UNL1       -0.2701
      3 N         139.8968  138.2847  154.3663 N.am    1  UNL1       -0.3009
      4 H         139.2704  137.8388  153.7515 H       1  UNL1        0.1497
      5 C         134.9994  140.2729  155.5125 C.ar    1  UNL1        0.0536
      6 C         135.9643  141.0078  156.3950 C.ar    1  UNL1        0.0048
      7 C         137.4273  140.6806  156.3426 C.ar    1  UNL1        0.0047
      8 C         137.9253  139.6185  155.4077 C.ar    1  UNL1        0.0534
      9 C         136.9604  138.8836  154.5252 C.ar    1  UNL1        0.0047
     10 C         135.4975  139.2108  154.5776 C.ar    1  UNL1        0.0048
     11 C         129.7807  140.1858  156.5575 C.ar    1  UNL1        0.0143
     12 C         128.6326  141.0696  156.1694 C.ar    1  UNL1        0.0091
     13 C         128.8701  142.2705  155.3027 C.ar    1  UNL1        0.0698
     14 C         130.2559  142.5877  154.8240 C.ar    1  UNL1        0.0326
     15 C         131.4040  141.7039  155.2120 C.ar    1  UNL1        0.1192
     16 N         132.8688  141.7639  154.8944 N.ar    1  UNL1       -0.2082
     17 C         133.5365  140.6000  155.5648 C.ar    1  UNL1        0.2296
     18 O         132.4844  139.8207  156.2968 O.2     1  UNL1       -0.4349
     19 C         131.1665  140.5030  156.0788 C.ar    1  UNL1        0.1607
     20 C         129.7211  137.6062  156.8607 C.3     1  UNL1        0.0048
     21 C         129.5432  138.9848  157.4242 C.3     1  UNL1        0.0254
     22 C         129.1276  139.1626  158.8546 C.3     1  UNL1        0.0048
     23 C         127.7219  143.1543  154.9146 C.1     1  UNL1        0.1005
     24 N         126.5737  144.0382  154.5266 N.1     1  UNL1       -0.1908
     25 C         141.3598  137.9576  154.3140 C.3     1  UNL1        0.0896
     26 C         141.8591  136.6612  154.8798 C.3     1  UNL1        0.0196
     27 C         141.0227  135.4214  154.7654 C.3     1  UNL1        0.0020
     28 C         141.5220  134.1250  155.3312 C.3     1  UNL1        0.0044
     29 C         142.8578  134.0685  156.0113 C.3     1  UNL1        0.0223
     30 C         143.6942  135.3085  156.1257 C.3     1  UNL1        0.0044
     31 C         143.1949  136.6048  155.5599 C.3     1  UNL1        0.0020
     32 C         143.3571  132.7722  156.5771 C.ar    1  UNL1       -0.0225
     33 C         142.6198  131.4969  156.2944 C.ar    1  UNL1       -0.0043
     34 C         143.1191  130.2006  156.8602 C.ar    1  UNL1        0.0035
     35 C         144.3559  130.1795  157.7087 C.ar    1  UNL1        0.0714
     36 C         145.0932  131.4548  157.9915 C.ar    1  UNL1        0.0035
     37 C         144.5939  132.7512  157.4257 C.ar    1  UNL1       -0.0043
     38 C         144.8552  128.8832  158.2745 C.3     1  UNL1        0.4186
     39 F         145.3546  127.5868  158.8403 F       1  UNL1       -0.1659
     40 F         145.8449  129.6320  159.1170 F       1  UNL1       -0.1659
     41 F         143.8656  128.1343  157.4320 F       1  UNL1       -0.1659
@<TRIPOS>BOND
     1    20    21    1
     2    21    22    1
     3    21    11    1
     4    11    12   ar
     5    12    13   ar
     6    13    23    1
     7    23    24    3
     8    13    14   ar
     9    14    15   ar
    10    15    16   ar
    11    16    17   ar
    12    17     5    1
    13     5     6   ar
    14     6     7   ar
    15     7     8   ar
    16     8     1    1
    17     1     2    2
    18     1     3   am
    19     3    25    1
    20    26    25    1
    21    26    27    1
    22    27    28    1
    23    28    29    1
    24    29    32    1
    25    32    33   ar
    26    33    34   ar
    27    34    35   ar
    28    35    38    1
    29    38    39    1
    30    38    40    1
    31    38    41    1
    32    35    36   ar
    33    36    37   ar
    34    29    30    1
    35    30    31    1
    36     8     9   ar
    37     9    10   ar
    38    17    18   ar
    39    18    19   ar
    40    19    11   ar
    41    19    15   ar
    42    10     5   ar
    43    31    26    1
    44    37    32   ar
    45     3     4    1
@<TRIPOS>MOLECULE
*****
 41 45 0 0 0
SMALL
GASTEIGER

@<TRIPOS>ATOM
      1 C         141.5282  138.6593  157.6381 C.2     1  UNL1        0.2458
      2 O         141.7992  139.8456  156.7611 O.2     1  UNL1       -0.2701
      3 N         140.9766  138.8576  159.0188 N.am    1  UNL1       -0.3009
      4 H         140.7988  138.0789  159.5944 H       1  UNL1        0.1497
      5 C         142.3699  134.5051  156.1266 C.ar    1  UNL1        0.0536
      6 C         143.2357  135.1042  157.1950 C.ar    1  UNL1        0.0048
      7 C         142.9551  136.4890  157.6988 C.ar    1  UNL1        0.0047
      8 C         141.8087  137.2746  157.1342 C.ar    1  UNL1        0.0534
      9 C         140.9429  136.6754  156.0659 C.ar    1  UNL1        0.0047
     10 C         141.2236  135.2907  155.5621 C.ar    1  UNL1        0.0048
     11 C         141.8530  129.5495  154.2534 C.ar    1  UNL1        0.0143
     12 C         142.8321  128.4707  153.8959 C.ar    1  UNL1        0.0091
     13 C         144.3041  128.7116  154.0536 C.ar    1  UNL1        0.0698
     14 C         144.7973  130.0313  154.5688 C.ar    1  UNL1        0.0326
     15 C         143.8182  131.1100  154.9263 C.ar    1  UNL1        0.1192
     16 N         144.0064  132.5014  155.4542 N.ar    1  UNL1       -0.2082
     17 C         142.6505  133.1204  155.6228 C.ar    1  UNL1        0.2296
     18 O         141.6244  132.1116  155.1990 O.2     1  UNL1       -0.4349
     19 C         142.3461  130.8691  154.7686 C.ar    1  UNL1        0.1607
     20 C         139.6235  128.5708  155.1596 C.3     1  UNL1        0.0048
     21 C         140.3809  129.3086  154.0957 C.3     1  UNL1        0.0254
     22 C         139.6662  129.8055  152.8740 C.3     1  UNL1        0.0048
     23 C         145.2832  127.6328  153.6961 C.1     1  UNL1        0.1005
     24 N         146.2622  126.5540  153.3386 N.1     1  UNL1       -0.1908
     25 C         140.6961  140.2423  159.5227 C.3     1  UNL1        0.0896
     26 C         140.6141  140.5014  160.9978 C.3     1  UNL1        0.0196
     27 C         140.3413  139.3699  161.9440 C.3     1  UNL1        0.0020
     28 C         140.2593  139.6290  163.4192 C.3     1  UNL1        0.0044
     29 C         140.4501  141.0196  163.9482 C.3     1  UNL1        0.0223
     30 C         140.7229  142.1511  163.0019 C.3     1  UNL1        0.0044
     31 C         140.8049  141.8921  161.5268 C.3     1  UNL1        0.0020
     32 C         140.3681  141.2787  165.4233 C.ar    1  UNL1       -0.0225
     33 C         140.1288  140.1420  166.3723 C.ar    1  UNL1       -0.0043
     34 C         140.0468  140.4011  167.8475 C.ar    1  UNL1        0.0035
     35 C         140.2041  141.7970  168.3737 C.ar    1  UNL1        0.0714
     36 C         140.4434  142.9336  167.4247 C.ar    1  UNL1        0.0035
     37 C         140.5254  142.6746  165.9495 C.ar    1  UNL1       -0.0043
     38 C         140.1221  142.0560  169.8488 C.3     1  UNL1        0.4186
     39 F         140.0401  142.3151  171.3240 F       1  UNL1       -0.1659
     40 F         141.3515  142.9117  169.7670 F       1  UNL1       -0.1659
     41 F         138.8928  141.2004  169.9308 F       1  UNL1       -0.1659
@<TRIPOS>BOND
     1    20    21    1
     2    21    22    1
     3    21    11    1
     4    11    12   ar
     5    12    13   ar
     6    13    23    1
     7    23    24    3
     8    13    14   ar
     9    14    15   ar
    10    15    16   ar
    11    16    17   ar
    12    17     5    1
    13     5     6   ar
    14     6     7   ar
    15     7     8   ar
    16     8     1    1
    17     1     2    2
    18     1     3   am
    19     3    25    1
    20    26    25    1
    21    26    27    1
    22    27    28    1
    23    28    29    1
    24    29    32    1
    25    32    33   ar
    26    33    34   ar
    27    34    35   ar
    28    35    38    1
    29    38    39    1
    30    38    40    1
    31    38    41    1
    32    35    36   ar
    33    36    37   ar
    34    29    30    1
    35    30    31    1
    36     8     9   ar
    37     9    10   ar
    38    17    18   ar
    39    18    19   ar
    40    19    11   ar
    41    19    15   ar
    42    10     5   ar
    43    31    26    1
    44    37    32   ar
    45     3     4    1
@<TRIPOS>MOLECULE
*****
 41 45 0 0 0
SMALL
GASTEIGER

@<TRIPOS>ATOM
      1 C         143.8082  140.1735  156.2048 C.2     1  UNL1        0.2458
      2 O         144.4515  138.9780  155.5670 O.2     1  UNL1       -0.2701
      3 N         143.7832  141.4871  155.4811 N.am    1  UNL1       -0.3009
      4 H         143.3609  142.2718  155.8997 H       1  UNL1        0.1497
      5 C         141.9536  139.8193  160.2895 C.ar    1  UNL1        0.0536
      6 C         142.5636  141.1182  159.8529 C.ar    1  UNL1        0.0048
      7 C         143.1818  141.2362  158.4913 C.ar    1  UNL1        0.0047
      8 C         143.1900  140.0554  157.5663 C.ar    1  UNL1        0.0534
      9 C         142.5800  138.7565  158.0029 C.ar    1  UNL1        0.0047
     10 C         141.9618  138.6384  159.3646 C.ar    1  UNL1        0.0048
     11 C         140.8601  140.3825  165.4685 C.ar    1  UNL1        0.0143
     12 C         139.8190  139.7976  166.3761 C.ar    1  UNL1        0.0091
     13 C         138.8075  138.8322  165.8331 C.ar    1  UNL1        0.0698
     14 C         138.8371  138.4518  164.3824 C.ar    1  UNL1        0.0326
     15 C         139.8783  139.0367  163.4748 C.ar    1  UNL1        0.1192
     16 N         140.1536  138.8507  162.0121 N.ar    1  UNL1       -0.2082
     17 C         141.3353  139.7011  161.6511 C.ar    1  UNL1        0.2296
     18 O         141.7903  140.4128  162.8907 O.2     1  UNL1       -0.4349
     19 C         140.8898  140.0021  164.0178 C.ar    1  UNL1        0.1607
     20 C         141.5280  142.2108  167.1894 C.3     1  UNL1        0.0048
     21 C         141.8716  141.3479  166.0115 C.3     1  UNL1        0.0254
     22 C         143.2269  141.4504  165.3766 C.3     1  UNL1        0.0048
     23 C         137.7663  138.2472  166.7408 C.1     1  UNL1        0.1005
     24 N         136.7252  137.6623  167.6484 N.1     1  UNL1       -0.1908
     25 C         144.4014  141.6053  154.1195 C.3     1  UNL1        0.0896
     26 C         145.8745  141.8532  153.9836 C.3     1  UNL1        0.0196
     27 C         146.5386  141.7118  152.6461 C.3     1  UNL1        0.0020
     28 C         148.0117  141.9597  152.5103 C.3     1  UNL1        0.0044
     29 C         148.8207  142.3490  153.7119 C.3     1  UNL1        0.0223
     30 C         148.1566  142.4904  155.0495 C.3     1  UNL1        0.0044
     31 C         146.6835  142.2425  155.1854 C.3     1  UNL1        0.0020
     32 C         150.2938  142.5969  153.5760 C.ar    1  UNL1       -0.0225
     33 C         151.2736  141.5379  153.9863 C.ar    1  UNL1       -0.0043
     34 C         152.7468  141.7859  153.8505 C.ar    1  UNL1        0.0035
     35 C         153.2400  143.0929  153.3042 C.ar    1  UNL1        0.0714
     36 C         152.2602  144.1519  152.8939 C.ar    1  UNL1        0.0035
     37 C         150.7871  143.9040  153.0298 C.ar    1  UNL1       -0.0043
     38 C         154.7131  143.3408  153.1683 C.3     1  UNL1        0.4186
     39 F         156.1862  143.5888  153.0324 F       1  UNL1       -0.1659
     40 F         154.9959  142.0601  153.8963 F       1  UNL1       -0.1659
     41 F         154.4305  144.6215  152.4404 F       1  UNL1       -0.1659
@<TRIPOS>BOND
     1    20    21    1
     2    21    22    1
     3    21    11    1
     4    11    12   ar
     5    12    13   ar
     6    13    23    1
     7    23    24    3
     8    13    14   ar
     9    14    15   ar
    10    15    16   ar
    11    16    17   ar
    12    17     5    1
    13     5     6   ar
    14     6     7   ar
    15     7     8   ar
    16     8     1    1
    17     1     2    2
    18     1     3   am
    19     3    25    1
    20    26    25    1
    21    26    27    1
    22    27    28    1
    23    28    29    1
    24    29    32    1
    25    32    33   ar
    26    33    34   ar
    27    34    35   ar
    28    35    38    1
    29    38    39    1
    30    38    40    1
    31    38    41    1
    32    35    36   ar
    33    36    37   ar
    34    29    30    1
    35    30    31    1
    36     8     9   ar
    37     9    10   ar
    38    17    18   ar
    39    18    19   ar
    40    19    11   ar
    41    19    15   ar
    42    10     5   ar
    43    31    26    1
    44    37    32   ar
    45     3     4    1
