@<TRIPOS>MOLECULE
*****
 38 42 0 0 0
SMALL
GASTEIGER

@<TRIPOS>ATOM
      1 C         140.4166  142.9076  162.5692 C.ar    1  UNL1        0.0536
      2 C         141.4246  143.9591  162.2111 C.ar    1  UNL1        0.0048
      3 C         141.5590  144.4155  160.7886 C.ar    1  UNL1        0.0047
      4 C         140.6856  143.8205  159.7241 C.ar    1  UNL1        0.0534
      5 C         139.6776  142.7690  160.0823 C.ar    1  UNL1        0.0047
      6 C         139.5431  142.3125  161.5048 C.ar    1  UNL1        0.0048
      7 C         139.2893  140.0947  166.9455 C.ar    1  UNL1        0.0143
      8 C         139.5074  140.3287  168.4110 C.ar    1  UNL1        0.0091
      9 C         140.1765  141.5872  168.8781 C.ar    1  UNL1        0.0698
     10 C         140.6276  142.6119  167.8798 C.ar    1  UNL1        0.0326
     11 C         140.4096  142.3779  166.4143 C.ar    1  UNL1        0.1192
     12 N         140.7443  143.2010  165.2058 N.ar    1  UNL1       -0.2082
     13 C         140.2821  142.4511  163.9917 C.ar    1  UNL1        0.2296
     14 O         139.6616  141.1646  164.4499 O.2     1  UNL1       -0.4349
     15 C         139.7404  141.1193  165.9471 C.ar    1  UNL1        0.1607
     16 C         137.4199  138.3096  167.2078 C.3     1  UNL1        0.0048
     17 C         138.6202  138.8361  166.4783 C.3     1  UNL1        0.0254
     18 C         139.1513  138.1040  165.2816 C.3     1  UNL1        0.0048
     19 C         140.3946  141.8212  170.3437 C.1     1  UNL1        0.1005
     20 N         140.6126  142.0551  171.8092 N.1     1  UNL1       -0.1908
     21 C         140.8201  144.2770  158.3016 C.2     1  UNL1        0.2459
     22 O         140.7077  145.7351  157.9681 O.2     1  UNL1       -0.2701
     23 N         141.0671  143.2754  157.2127 N.am    1  UNL1       -0.2975
     24 H         141.1409  142.3183  157.4317 H       1  UNL1        0.1499
     25 C         141.2016  143.7318  155.7902 C.3     1  UNL1        0.1355
     26 C         142.5588  143.8294  155.1590 C.3     1  UNL1        0.2101
     27 C         143.7595  143.0053  155.5183 C.3     1  UNL1        0.1483
     28 N         144.8964  143.4347  154.6391 N.am    1  UNL1       -0.2059
     29 C         144.3983  144.5243  153.7364 C.2     1  UNL1        0.4098
     30 O         145.2036  145.2437  152.6952 O.2     1  UNL1       -0.2258
     31 O         142.9536  144.7682  154.0578 O.3     1  UNL1       -0.4345
     32 C         146.2872  142.8732  154.6590 C.ar    1  UNL1        0.1401
     33 C         146.9904  142.6579  155.9663 C.ar    1  UNL1        0.0357
     34 C         148.3813  142.0963  155.9862 C.ar    1  UNL1        0.0158
     35 C         149.0688  141.7502  154.6988 C.ar    1  UNL1        0.0769
     36 CL        150.4596  141.1888  154.7187 Cl      1  UNL1       -0.0806
     37 C         148.3655  141.9656  153.3915 C.ar    1  UNL1        0.1116
     38 N         146.9748  142.5271  153.3716 N.ar    1  UNL1       -0.2278
@<TRIPOS>BOND
     1    16    17    1
     2    17    18    1
     3    17     7    1
     4     7     8   ar
     5     8     9   ar
     6     9    19    1
     7    19    20    3
     8     9    10   ar
     9    10    11   ar
    10    11    12   ar
    11    12    13   ar
    12    13     1    1
    13     1     2   ar
    14     2     3   ar
    15     3     4   ar
    16     4    21    1
    17    21    22    2
    18    21    23   am
    19    23    25    1
    20    25    26    1
    21    26    27    1
    22    27    28    1
    23    28    32    1
    24    32    33   ar
    25    33    34   ar
    26    34    35   ar
    27    35    36    1
    28    35    37   ar
    29    37    38   ar
    30    28    29   am
    31    29    30    2
    32    29    31    1
    33     4     5   ar
    34     5     6   ar
    35    13    14   ar
    36    14    15   ar
    37    15     7   ar
    38    15    11   ar
    39     6     1   ar
    40    31    26    1
    41    38    32   ar
    42    23    24    1
@<TRIPOS>MOLECULE
*****
 38 42 0 0 0
SMALL
GASTEIGER

@<TRIPOS>ATOM
      1 C         141.2489  139.0529  161.4309 C.ar    1  UNL1        0.0536
      2 C         142.5480  138.3435  161.1877 C.ar    1  UNL1        0.0048
      3 C         142.8666  137.8093  159.8228 C.ar    1  UNL1        0.0047
      4 C         141.8863  137.9844  158.7011 C.ar    1  UNL1        0.0534
      5 C         140.5872  138.6938  158.9443 C.ar    1  UNL1        0.0047
      6 C         140.2686  139.2281  160.3092 C.ar    1  UNL1        0.0048
      7 C         140.2175  142.2722  165.5427 C.ar    1  UNL1        0.0143
      8 C         139.9146  142.0348  166.9925 C.ar    1  UNL1        0.0091
      9 C         139.8608  140.6348  167.5280 C.ar    1  UNL1        0.0698
     10 C         140.1099  139.4720  166.6137 C.ar    1  UNL1        0.0326
     11 C         140.4128  139.7093  165.1639 C.ar    1  UNL1        0.1192
     12 N         140.6993  138.7685  164.0313 N.ar    1  UNL1       -0.2082
     13 C         140.9302  139.5872  162.7959 C.ar    1  UNL1        0.2296
     14 O         140.7864  141.0340  163.1649 O.2     1  UNL1       -0.4349
     15 C         140.4666  141.1095  164.6284 C.ar    1  UNL1        0.1607
     16 C         141.5114  144.1665  164.3231 C.3     1  UNL1        0.0048
     17 C         140.2714  143.6724  165.0072 C.3     1  UNL1        0.0254
     18 C         139.0851  144.5784  165.1559 C.3     1  UNL1        0.0048
     19 C         139.5578  140.3974  168.9778 C.1     1  UNL1        0.1005
     20 N         139.2549  140.1601  170.4276 N.1     1  UNL1       -0.1908
     21 C         142.2050  137.4501  157.3361 C.2     1  UNL1        0.2459
     22 O         143.5988  137.5627  156.7934 O.2     1  UNL1       -0.2701
     23 N         141.1299  136.8033  156.5140 N.am    1  UNL1       -0.2975
     24 H         140.2151  136.7295  156.8703 H       1  UNL1        0.1499
     25 C         141.4486  136.2691  155.1491 C.3     1  UNL1        0.1355
     26 C         141.9484  134.8636  154.9918 C.3     1  UNL1        0.2101
     27 C         142.2724  133.9131  156.1060 C.3     1  UNL1        0.1483
     28 N         142.7361  132.6239  155.4955 N.am    1  UNL1       -0.2059
     29 C         142.6988  132.7776  154.0037 C.2     1  UNL1        0.4098
     30 O         143.0812  131.7308  152.9997 O.2     1  UNL1       -0.2258
     31 O         142.2120  134.1618  153.6926 O.3     1  UNL1       -0.4345
     32 C         143.1624  131.3964  156.2449 C.ar    1  UNL1        0.1401
     33 C         144.2369  131.4895  157.2874 C.ar    1  UNL1        0.0357
     34 C         144.6632  130.2621  158.0368 C.ar    1  UNL1        0.0158
     35 C         144.0150  128.9415  157.7438 C.ar    1  UNL1        0.0769
     36 CL        144.4412  127.7141  158.4932 Cl      1  UNL1       -0.0806
     37 C         142.9404  128.8485  156.7013 C.ar    1  UNL1        0.1116
     38 N         142.5142  130.0758  155.9519 N.ar    1  UNL1       -0.2278
@<TRIPOS>BOND
     1    16    17    1
     2    17    18    1
     3    17     7    1
     4     7     8   ar
     5     8     9   ar
     6     9    19    1
     7    19    20    3
     8     9    10   ar
     9    10    11   ar
    10    11    12   ar
    11    12    13   ar
    12    13     1    1
    13     1     2   ar
    14     2     3   ar
    15     3     4   ar
    16     4    21    1
    17    21    22    2
    18    21    23   am
    19    23    25    1
    20    25    26    1
    21    26    27    1
    22    27    28    1
    23    28    32    1
    24    32    33   ar
    25    33    34   ar
    26    34    35   ar
    27    35    36    1
    28    35    37   ar
    29    37    38   ar
    30    28    29   am
    31    29    30    2
    32    29    31    1
    33     4     5   ar
    34     5     6   ar
    35    13    14   ar
    36    14    15   ar
    37    15     7   ar
    38    15    11   ar
    39     6     1   ar
    40    31    26    1
    41    38    32   ar
    42    23    24    1
@<TRIPOS>MOLECULE
*****
 38 42 0 0 0
SMALL
GASTEIGER

@<TRIPOS>ATOM
      1 C         141.9429  140.1439  162.5279 C.ar    1  UNL1        0.0536
      2 C         140.7475  140.0419  161.6276 C.ar    1  UNL1        0.0048
      3 C         140.9159  139.5972  160.2049 C.ar    1  UNL1        0.0047
      4 C         142.2796  139.2546  159.6826 C.ar    1  UNL1        0.0534
      5 C         143.4750  139.3566  160.5829 C.ar    1  UNL1        0.0047
      6 C         143.3066  139.8012  162.0056 C.ar    1  UNL1        0.0048
      7 C         142.0446  140.4038  167.8436 C.ar    1  UNL1        0.0143
      8 C         141.5614  141.4158  168.8398 C.ar    1  UNL1        0.0091
      9 C         140.8867  142.6696  168.3682 C.ar    1  UNL1        0.0698
     10 C         140.6950  142.9115  166.9002 C.ar    1  UNL1        0.0326
     11 C         141.1782  141.8995  165.9040 C.ar    1  UNL1        0.1192
     12 N         141.1297  141.8642  164.4052 N.ar    1  UNL1       -0.2082
     13 C         141.7746  140.5885  163.9506 C.ar    1  UNL1        0.2296
     14 O         142.2216  139.8354  165.1684 O.2     1  UNL1       -0.4349
     15 C         141.8530  140.6457  166.3757 C.ar    1  UNL1        0.1607
     16 C         143.4737  138.2927  167.3426 C.3     1  UNL1        0.0048
     17 C         142.7194  139.1499  168.3153 C.3     1  UNL1        0.0254
     18 C         142.6399  138.7533  169.7598 C.3     1  UNL1        0.0048
     19 C         140.4035  143.6816  169.3645 C.1     1  UNL1        0.1005
     20 N         139.9204  144.6936  170.3607 N.1     1  UNL1       -0.1908
     21 C         142.4479  138.8100  158.2599 C.2     1  UNL1        0.2459
     22 O         143.7775  138.9557  157.5810 O.2     1  UNL1       -0.2701
     23 N         141.2867  138.2197  157.5162 N.am    1  UNL1       -0.2975
     24 H         140.4140  138.1241  157.9619 H       1  UNL1        0.1499
     25 C         141.4550  137.7751  156.0935 C.3     1  UNL1        0.1355
     26 C         141.8537  136.3608  155.7919 C.3     1  UNL1        0.2101
     27 C         142.4381  135.3825  156.7672 C.3     1  UNL1        0.1483
     28 N         142.6835  134.0937  156.0402 N.am    1  UNL1       -0.2059
     29 C         142.2507  134.2755  154.6154 C.2     1  UNL1        0.4098
     30 O         142.3189  133.2382  153.5341 O.2     1  UNL1       -0.2258
     31 O         141.7379  135.6767  154.4621 O.3     1  UNL1       -0.4345
     32 C         143.2604  132.8426  156.6335 C.ar    1  UNL1        0.1401
     33 C         144.5250  132.9079  157.4377 C.ar    1  UNL1        0.0357
     34 C         145.1019  131.6569  158.0311 C.ar    1  UNL1        0.0158
     35 C         144.4142  130.3405  157.8203 C.ar    1  UNL1        0.0769
     36 CL        144.9911  129.0896  158.4136 Cl      1  UNL1       -0.0806
     37 C         143.1497  130.2753  157.0161 C.ar    1  UNL1        0.1116
     38 N         142.5728  131.5263  156.4228 N.ar    1  UNL1       -0.2278
@<TRIPOS>BOND
     1    16    17    1
     2    17    18    1
     3    17     7    1
     4     7     8   ar
     5     8     9   ar
     6     9    19    1
     7    19    20    3
     8     9    10   ar
     9    10    11   ar
    10    11    12   ar
    11    12    13   ar
    12    13     1    1
    13     1     2   ar
    14     2     3   ar
    15     3     4   ar
    16     4    21    1
    17    21    22    2
    18    21    23   am
    19    23    25    1
    20    25    26    1
    21    26    27    1
    22    27    28    1
    23    28    32    1
    24    32    33   ar
    25    33    34   ar
    26    34    35   ar
    27    35    36    1
    28    35    37   ar
    29    37    38   ar
    30    28    29   am
    31    29    30    2
    32    29    31    1
    33     4     5   ar
    34     5     6   ar
    35    13    14   ar
    36    14    15   ar
    37    15     7   ar
    38    15    11   ar
    39     6     1   ar
    40    31    26    1
    41    38    32   ar
    42    23    24    1
@<TRIPOS>MOLECULE
*****
 38 42 0 0 0
SMALL
GASTEIGER

@<TRIPOS>ATOM
      1 C         142.8941  136.7790  157.1446 C.ar    1  UNL1        0.0536
      2 C         143.3664  137.7769  156.1292 C.ar    1  UNL1        0.0048
      3 C         143.5701  139.2096  156.5241 C.ar    1  UNL1        0.0047
      4 C         143.3015  139.6444  157.9343 C.ar    1  UNL1        0.0534
      5 C         142.8292  138.6465  158.9497 C.ar    1  UNL1        0.0047
      6 C         142.6255  137.2138  158.5549 C.ar    1  UNL1        0.0048
      7 C         143.2885  131.4856  156.7459 C.ar    1  UNL1        0.0143
      8 C         142.5682  130.4525  155.9313 C.ar    1  UNL1        0.0091
      9 C         141.4803  130.8676  154.9858 C.ar    1  UNL1        0.0698
     10 C         141.1126  132.3161  154.8550 C.ar    1  UNL1        0.0326
     11 C         141.8330  133.3492  155.6696 C.ar    1  UNL1        0.1192
     12 N         141.6905  134.8401  155.7529 N.ar    1  UNL1       -0.2082
     13 C         142.6904  135.3463  156.7498 C.ar    1  UNL1        0.2296
     14 O         143.4509  134.1682  157.2827 O.2     1  UNL1       -0.4349
     15 C         142.9210  132.9340  156.6151 C.ar    1  UNL1        0.1607
     16 C         145.5221  131.9976  157.9703 C.3     1  UNL1        0.0048
     17 C         144.3765  131.0704  157.6914 C.3     1  UNL1        0.0254
     18 C         144.3189  129.7278  158.3580 C.3     1  UNL1        0.0048
     19 C         140.7598  129.8344  154.1712 C.1     1  UNL1        0.1005
     20 N         140.0394  128.8013  153.3565 N.1     1  UNL1       -0.1908
     21 C         143.5052  141.0771  158.3291 C.2     1  UNL1        0.2459
     22 O         143.6120  142.1378  157.2739 O.2     1  UNL1       -0.2701
     23 N         143.6021  141.4490  159.7790 N.am    1  UNL1       -0.2975
     24 H         143.5320  140.7528  160.4716 H       1  UNL1        0.1499
     25 C         143.8058  142.8817  160.1738 C.3     1  UNL1        0.1355
     26 C         143.6597  143.2922  161.6091 C.3     1  UNL1        0.2101
     27 C         142.9407  142.5228  162.6773 C.3     1  UNL1        0.1483
     28 N         143.0435  143.2993  163.9566 N.am    1  UNL1       -0.2059
     29 C         143.8260  144.5486  163.6791 C.2     1  UNL1        0.4098
     30 O         144.1677  145.6149  164.6771 O.2     1  UNL1       -0.2258
     31 O         144.2068  144.5441  162.2282 O.3     1  UNL1       -0.4345
     32 C         142.4653  142.8971  165.2810 C.ar    1  UNL1        0.1401
     33 C         143.3734  142.4918  166.4039 C.ar    1  UNL1        0.0357
     34 C         142.7952  142.0896  167.7283 C.ar    1  UNL1        0.0158
     35 C         141.3088  142.0927  167.9297 C.ar    1  UNL1        0.0769
     36 CL        140.7307  141.6905  169.2540 Cl      1  UNL1       -0.0806
     37 C         140.4007  142.4980  166.8067 C.ar    1  UNL1        0.1116
     38 N         140.9789  142.9001  165.4825 N.ar    1  UNL1       -0.2278
@<TRIPOS>BOND
     1    16    17    1
     2    17    18    1
     3    17     7    1
     4     7     8   ar
     5     8     9   ar
     6     9    19    1
     7    19    20    3
     8     9    10   ar
     9    10    11   ar
    10    11    12   ar
    11    12    13   ar
    12    13     1    1
    13     1     2   ar
    14     2     3   ar
    15     3     4   ar
    16     4    21    1
    17    21    22    2
    18    21    23   am
    19    23    25    1
    20    25    26    1
    21    26    27    1
    22    27    28    1
    23    28    32    1
    24    32    33   ar
    25    33    34   ar
    26    34    35   ar
    27    35    36    1
    28    35    37   ar
    29    37    38   ar
    30    28    29   am
    31    29    30    2
    32    29    31    1
    33     4     5   ar
    34     5     6   ar
    35    13    14   ar
    36    14    15   ar
    37    15     7   ar
    38    15    11   ar
    39     6     1   ar
    40    31    26    1
    41    38    32   ar
    42    23    24    1
@<TRIPOS>MOLECULE
*****
 38 42 0 0 0
SMALL
GASTEIGER

@<TRIPOS>ATOM
      1 C         140.3154  140.9914  162.2251 C.ar    1  UNL1        0.0536
      2 C         139.8476  142.1920  161.4572 C.ar    1  UNL1        0.0048
      3 C         139.4114  142.0457  160.0294 C.ar    1  UNL1        0.0047
      4 C         139.4431  140.6990  159.3696 C.ar    1  UNL1        0.0534
      5 C         139.9110  139.4985  160.1376 C.ar    1  UNL1        0.0047
      6 C         140.3471  139.6447  161.5653 C.ar    1  UNL1        0.0048
      7 C         140.5746  140.7507  167.5364 C.ar    1  UNL1        0.0143
      8 C         141.5652  141.2464  168.5478 C.ar    1  UNL1        0.0091
      9 C         142.7909  141.9846  168.0978 C.ar    1  UNL1        0.0698
     10 C         143.0261  142.2272  166.6363 C.ar    1  UNL1        0.0326
     11 C         142.0355  141.7315  165.6249 C.ar    1  UNL1        0.1192
     12 N         141.9996  141.8207  164.1280 N.ar    1  UNL1       -0.2082
     13 C         140.7516  141.1375  163.6529 C.ar    1  UNL1        0.2296
     14 O         140.0162  140.6262  164.8561 O.2     1  UNL1       -0.4349
     15 C         140.8098  140.9933  166.0749 C.ar    1  UNL1        0.1607
     16 C         138.5867  139.1615  167.0143 C.3     1  UNL1        0.0048
     17 C         139.3489  140.0124  167.9864 C.3     1  UNL1        0.0254
     18 C         138.8853  140.1251  169.4086 C.3     1  UNL1        0.0048
     19 C         143.7815  142.4803  169.1094 C.1     1  UNL1        0.1005
     20 N         144.7721  142.9760  170.1208 N.1     1  UNL1       -0.1908
     21 C         139.0070  140.5529  157.9419 C.2     1  UNL1        0.2459
     22 O         138.8290  139.1869  157.3482 O.2     1  UNL1       -0.2701
     23 N         138.7488  141.7726  157.1079 N.am    1  UNL1       -0.2975
     24 H         138.8657  142.6691  157.4976 H       1  UNL1        0.1499
     25 C         138.3127  141.6265  155.6802 C.3     1  UNL1        0.1355
     26 C         136.8617  141.4279  155.3558 C.3     1  UNL1        0.2101
     27 C         135.8154  140.8918  156.2873 C.3     1  UNL1        0.1483
     28 N         134.5094  140.8631  155.5502 N.am    1  UNL1       -0.2059
     29 C         134.7485  141.3815  154.1630 C.2     1  UNL1        0.4098
     30 O         133.7152  141.5255  153.0853 O.2     1  UNL1       -0.2258
     31 O         136.2024  141.7306  154.0430 O.3     1  UNL1       -0.4345
     32 C         133.1949  140.3977  156.1031 C.ar    1  UNL1        0.1401
     33 C         133.1467  139.2224  157.0338 C.ar    1  UNL1        0.0357
     34 C         131.8322  138.7570  157.5867 C.ar    1  UNL1        0.0158
     35 C         130.5660  139.4669  157.2089 C.ar    1  UNL1        0.0769
     36 CL        129.2517  139.0015  157.7617 Cl      1  UNL1       -0.0806
     37 C         130.6144  140.6423  156.2781 C.ar    1  UNL1        0.1116
     38 N         131.9287  141.1076  155.7253 N.ar    1  UNL1       -0.2278
@<TRIPOS>BOND
     1    16    17    1
     2    17    18    1
     3    17     7    1
     4     7     8   ar
     5     8     9   ar
     6     9    19    1
     7    19    20    3
     8     9    10   ar
     9    10    11   ar
    10    11    12   ar
    11    12    13   ar
    12    13     1    1
    13     1     2   ar
    14     2     3   ar
    15     3     4   ar
    16     4    21    1
    17    21    22    2
    18    21    23   am
    19    23    25    1
    20    25    26    1
    21    26    27    1
    22    27    28    1
    23    28    32    1
    24    32    33   ar
    25    33    34   ar
    26    34    35   ar
    27    35    36    1
    28    35    37   ar
    29    37    38   ar
    30    28    29   am
    31    29    30    2
    32    29    31    1
    33     4     5   ar
    34     5     6   ar
    35    13    14   ar
    36    14    15   ar
    37    15     7   ar
    38    15    11   ar
    39     6     1   ar
    40    31    26    1
    41    38    32   ar
    42    23    24    1
@<TRIPOS>MOLECULE
*****
 38 42 0 0 0
SMALL
GASTEIGER

@<TRIPOS>ATOM
      1 C         139.6843  140.9357  161.3729 C.ar    1  UNL1        0.0536
      2 C         139.1070  139.7123  160.7248 C.ar    1  UNL1        0.0048
      3 C         138.3384  139.8349  159.4425 C.ar    1  UNL1        0.0047
      4 C         138.1471  141.1807  158.8083 C.ar    1  UNL1        0.0534
      5 C         138.7245  142.4040  159.4564 C.ar    1  UNL1        0.0047
      6 C         139.4931  142.2815  160.7387 C.ar    1  UNL1        0.0048
      7 C         143.3409  141.4596  165.2056 C.ar    1  UNL1        0.0143
      8 C         143.4867  140.8832  166.5827 C.ar    1  UNL1        0.0091
      9 C         142.4473  139.9425  167.1160 C.ar    1  UNL1        0.0698
     10 C         141.2618  139.5781  166.2721 C.ar    1  UNL1        0.0326
     11 C         141.1159  140.1545  164.8950 C.ar    1  UNL1        0.1192
     12 N         140.0637  139.9802  163.8403 N.ar    1  UNL1       -0.2082
     13 C         140.4529  140.8132  162.6552 C.ar    1  UNL1        0.2296
     14 O         141.7457  141.5024  162.9774 O.2     1  UNL1       -0.4349
     15 C         142.1555  141.0952  164.3617 C.ar    1  UNL1        0.1607
     16 C         145.2769  141.9691  163.5496 C.3     1  UNL1        0.0048
     17 C         144.3804  142.4003  164.6723 C.3     1  UNL1        0.0254
     18 C         144.5235  143.7723  165.2618 C.3     1  UNL1        0.0048
     19 C         142.5932  139.3661  168.4932 C.1     1  UNL1        0.1005
     20 N         142.7390  138.7897  169.8703 N.1     1  UNL1       -0.1908
     21 C         137.3785  141.3031  157.5260 C.2     1  UNL1        0.2459
     22 O         137.8510  142.2411  156.4551 O.2     1  UNL1       -0.2701
     23 N         136.1375  140.4875  157.3146 N.am    1  UNL1       -0.2975
     24 H         135.8274  139.8719  158.0175 H       1  UNL1        0.1499
     25 C         135.3689  140.6100  156.0323 C.3     1  UNL1        0.1355
     26 C         133.8726  140.5056  156.0419 C.3     1  UNL1        0.2101
     27 C         133.0713  139.3746  156.6152 C.3     1  UNL1        0.1483
     28 N         131.6184  139.6839  156.4075 N.am    1  UNL1       -0.2059
     29 C         131.5216  141.0062  155.7058 C.2     1  UNL1        0.4098
     30 O         130.2542  141.6989  155.3012 O.2     1  UNL1       -0.2258
     31 O         132.9149  141.5140  155.4799 O.3     1  UNL1       -0.4345
     32 C         130.4646  138.8223  156.8277 C.ar    1  UNL1        0.1401
     33 C         130.3026  138.4359  158.2680 C.ar    1  UNL1        0.0357
     34 C         129.1489  137.5742  158.6882 C.ar    1  UNL1        0.0158
     35 C         128.1571  137.0990  157.6681 C.ar    1  UNL1        0.0769
     36 CL        127.0035  136.2375  158.0883 Cl      1  UNL1       -0.0806
     37 C         128.3192  137.4855  156.2278 C.ar    1  UNL1        0.1116
     38 N         129.4729  138.3471  155.8076 N.ar    1  UNL1       -0.2278
@<TRIPOS>BOND
     1    16    17    1
     2    17    18    1
     3    17     7    1
     4     7     8   ar
     5     8     9   ar
     6     9    19    1
     7    19    20    3
     8     9    10   ar
     9    10    11   ar
    10    11    12   ar
    11    12    13   ar
    12    13     1    1
    13     1     2   ar
    14     2     3   ar
    15     3     4   ar
    16     4    21    1
    17    21    22    2
    18    21    23   am
    19    23    25    1
    20    25    26    1
    21    26    27    1
    22    27    28    1
    23    28    32    1
    24    32    33   ar
    25    33    34   ar
    26    34    35   ar
    27    35    36    1
    28    35    37   ar
    29    37    38   ar
    30    28    29   am
    31    29    30    2
    32    29    31    1
    33     4     5   ar
    34     5     6   ar
    35    13    14   ar
    36    14    15   ar
    37    15     7   ar
    38    15    11   ar
    39     6     1   ar
    40    31    26    1
    41    38    32   ar
    42    23    24    1
@<TRIPOS>MOLECULE
*****
 38 42 0 0 0
SMALL
GASTEIGER

@<TRIPOS>ATOM
      1 C         143.3600  135.8903  156.5076 C.ar    1  UNL1        0.0536
      2 C         142.6713  136.6860  157.5765 C.ar    1  UNL1        0.0048
      3 C         142.7460  138.1841  157.5618 C.ar    1  UNL1        0.0047
      4 C         143.5093  138.8865  156.4783 C.ar    1  UNL1        0.0534
      5 C         144.1980  138.0908  155.4094 C.ar    1  UNL1        0.0047
      6 C         144.1233  136.5927  155.4241 C.ar    1  UNL1        0.0048
      7 C         142.0368  130.8326  155.5060 C.ar    1  UNL1        0.0143
      8 C         142.5066  129.5138  156.0443 C.ar    1  UNL1        0.0091
      9 C         143.5755  129.4708  157.0957 C.ar    1  UNL1        0.0698
     10 C         144.1747  130.7466  157.6088 C.ar    1  UNL1        0.0326
     11 C         143.7049  132.0655  157.0704 C.ar    1  UNL1        0.1192
     12 N         144.1062  133.4769  157.3815 N.ar    1  UNL1       -0.2082
     13 C         143.2853  134.3922  156.5223 C.ar    1  UNL1        0.2296
     14 O         142.3766  133.5465  155.6802 O.2     1  UNL1       -0.4349
     15 C         142.6359  132.1085  156.0190 C.ar    1  UNL1        0.1607
     16 C         141.2862  131.3899  153.0819 C.3     1  UNL1        0.0048
     17 C         140.9678  130.8756  154.4545 C.3     1  UNL1        0.0254
     18 C         139.5804  130.4043  154.7758 C.3     1  UNL1        0.0048
     19 C         144.0454  128.1518  157.6341 C.1     1  UNL1        0.1005
     20 N         144.5152  126.8329  158.1724 N.1     1  UNL1       -0.1908
     21 C         143.5840  140.3846  156.4637 C.2     1  UNL1        0.2459
     22 O         143.4205  141.1310  155.1730 O.2     1  UNL1       -0.2701
     23 N         143.8221  141.1361  157.7398 N.am    1  UNL1       -0.2975
     24 H         143.9294  140.6462  158.5869 H       1  UNL1        0.1499
     25 C         143.8968  142.6342  157.7252 C.3     1  UNL1        0.1355
     26 C         142.8602  143.4439  158.4463 C.3     1  UNL1        0.2101
     27 C         142.4503  143.2760  159.8794 C.3     1  UNL1        0.1483
     28 N         141.3884  144.2919  160.1797 N.am    1  UNL1       -0.2059
     29 C         141.1420  145.0877  158.9323 C.2     1  UNL1        0.4098
     30 O         140.1587  146.2104  158.7825 O.2     1  UNL1       -0.2258
     31 O         142.0518  144.5635  157.8610 O.3     1  UNL1       -0.4345
     32 C         140.6945  144.4792  161.4964 C.ar    1  UNL1        0.1401
     33 C         141.4992  144.6392  162.7521 C.ar    1  UNL1        0.0357
     34 C         140.8054  144.8265  164.0688 C.ar    1  UNL1        0.0158
     35 C         139.3069  144.8538  164.1297 C.ar    1  UNL1        0.0769
     36 CL        138.6131  145.0411  165.4463 Cl      1  UNL1       -0.0806
     37 C         138.5023  144.6938  162.8739 C.ar    1  UNL1        0.1116
     38 N         139.1960  144.5065  161.5573 N.ar    1  UNL1       -0.2278
@<TRIPOS>BOND
     1    16    17    1
     2    17    18    1
     3    17     7    1
     4     7     8   ar
     5     8     9   ar
     6     9    19    1
     7    19    20    3
     8     9    10   ar
     9    10    11   ar
    10    11    12   ar
    11    12    13   ar
    12    13     1    1
    13     1     2   ar
    14     2     3   ar
    15     3     4   ar
    16     4    21    1
    17    21    22    2
    18    21    23   am
    19    23    25    1
    20    25    26    1
    21    26    27    1
    22    27    28    1
    23    28    32    1
    24    32    33   ar
    25    33    34   ar
    26    34    35   ar
    27    35    36    1
    28    35    37   ar
    29    37    38   ar
    30    28    29   am
    31    29    30    2
    32    29    31    1
    33     4     5   ar
    34     5     6   ar
    35    13    14   ar
    36    14    15   ar
    37    15     7   ar
    38    15    11   ar
    39     6     1   ar
    40    31    26    1
    41    38    32   ar
    42    23    24    1
@<TRIPOS>MOLECULE
*****
 38 42 0 0 0
SMALL
GASTEIGER

@<TRIPOS>ATOM
      1 C         139.6903  141.6627  162.2585 C.ar    1  UNL1        0.0536
      2 C         139.0862  140.4196  161.6756 C.ar    1  UNL1        0.0048
      3 C         138.5432  140.4342  160.2774 C.ar    1  UNL1        0.0047
      4 C         138.6044  141.6918  159.4621 C.ar    1  UNL1        0.0534
      5 C         139.2085  142.9349  160.0450 C.ar    1  UNL1        0.0047
      6 C         139.7514  142.9203  161.4432 C.ar    1  UNL1        0.0048
      7 C         140.3661  140.7920  167.4662 C.ar    1  UNL1        0.0143
      8 C         141.4227  141.1901  168.4536 C.ar    1  UNL1        0.0091
      9 C         142.5955  142.0115  168.0067 C.ar    1  UNL1        0.0698
     10 C         142.7118  142.4347  166.5723 C.ar    1  UNL1        0.0326
     11 C         141.6551  142.0366  165.5849 C.ar    1  UNL1        0.1192
     12 N         141.5012  142.3042  164.1170 N.ar    1  UNL1       -0.2082
     13 C         140.2332  141.6482  163.6567 C.ar    1  UNL1        0.2296
     14 O         139.6035  140.9752  164.8401 O.2     1  UNL1       -0.4349
     15 C         140.4823  141.2152  166.0318 C.ar    1  UNL1        0.1607
     16 C         138.4458  139.1287  166.9218 C.3     1  UNL1        0.0048
     17 C         139.1932  139.9706  167.9131 C.3     1  UNL1        0.0254
     18 C         138.7677  139.9911  169.3514 C.3     1  UNL1        0.0048
     19 C         143.6522  142.4096  168.9942 C.1     1  UNL1        0.1005
     20 N         144.7088  142.8078  169.9816 N.1     1  UNL1       -0.1908
     21 C         138.0614  141.7063  158.0639 C.2     1  UNL1        0.2459
     22 O         138.5101  142.7607  157.0960 O.2     1  UNL1       -0.2701
     23 N         137.0697  140.6664  157.6336 N.am    1  UNL1       -0.2975
     24 H         136.7753  139.9743  158.2688 H       1  UNL1        0.1499
     25 C         136.5268  140.6809  156.2353 C.3     1  UNL1        0.1355
     26 C         135.0453  140.7338  156.0066 C.3     1  UNL1        0.2101
     27 C         134.0009  140.0384  156.8286 C.3     1  UNL1        0.1483
     28 N         132.6582  140.3662  156.2457 N.am    1  UNL1       -0.2059
     29 C         132.8728  141.2642  155.0635 C.2     1  UNL1        0.4098
     30 O         131.8003  141.8348  154.1836 O.2     1  UNL1       -0.2258
     31 O         134.3481  141.4913  154.9158 O.3     1  UNL1       -0.4345
     32 C         131.3335  139.8811  156.7555 C.ar    1  UNL1        0.1401
     33 C         131.2791  138.7854  157.7784 C.ar    1  UNL1        0.0357
     34 C         129.9544  138.3004  158.2883 C.ar    1  UNL1        0.0158
     35 C         128.6841  138.9111  157.7752 C.ar    1  UNL1        0.0769
     36 CL        127.3594  138.4261  158.2850 Cl      1  UNL1       -0.0806
     37 C         128.7385  140.0069  156.7523 C.ar    1  UNL1        0.1116
     38 N         130.0632  140.4919  156.2425 N.ar    1  UNL1       -0.2278
@<TRIPOS>BOND
     1    16    17    1
     2    17    18    1
     3    17     7    1
     4     7     8   ar
     5     8     9   ar
     6     9    19    1
     7    19    20    3
     8     9    10   ar
     9    10    11   ar
    10    11    12   ar
    11    12    13   ar
    12    13     1    1
    13     1     2   ar
    14     2     3   ar
    15     3     4   ar
    16     4    21    1
    17    21    22    2
    18    21    23   am
    19    23    25    1
    20    25    26    1
    21    26    27    1
    22    27    28    1
    23    28    32    1
    24    32    33   ar
    25    33    34   ar
    26    34    35   ar
    27    35    36    1
    28    35    37   ar
    29    37    38   ar
    30    28    29   am
    31    29    30    2
    32    29    31    1
    33     4     5   ar
    34     5     6   ar
    35    13    14   ar
    36    14    15   ar
    37    15     7   ar
    38    15    11   ar
    39     6     1   ar
    40    31    26    1
    41    38    32   ar
    42    23    24    1
@<TRIPOS>MOLECULE
*****
 38 42 0 0 0
SMALL
GASTEIGER

@<TRIPOS>ATOM
      1 C         139.5793  141.5746  162.0397 C.ar    1  UNL1        0.0536
      2 C         139.6547  142.8237  161.2126 C.ar    1  UNL1        0.0048
      3 C         139.0165  142.8645  159.8558 C.ar    1  UNL1        0.0047
      4 C         138.3028  141.6562  159.3259 C.ar    1  UNL1        0.0534
      5 C         138.2274  140.4071  160.1529 C.ar    1  UNL1        0.0047
      6 C         138.8656  140.3663  161.5098 C.ar    1  UNL1        0.0048
      7 C         142.6635  140.3371  166.1978 C.ar    1  UNL1        0.0143
      8 C         142.7606  140.8509  167.6037 C.ar    1  UNL1        0.0091
      9 C         141.8494  141.9492  168.0654 C.ar    1  UNL1        0.0698
     10 C         140.8410  142.5339  167.1212 C.ar    1  UNL1        0.0326
     11 C         140.7440  142.0201  165.7153 C.ar    1  UNL1        0.1192
     12 N         139.8554  142.3984  164.5675 N.ar    1  UNL1       -0.2082
     13 C         140.2175  141.5338  163.3965 C.ar    1  UNL1        0.2296
     14 O         141.3298  140.6211  163.8205 O.2     1  UNL1       -0.4349
     15 C         141.6552  140.9217  165.2536 C.ar    1  UNL1        0.1607
     16 C         143.7235  137.9925  166.5577 C.3     1  UNL1        0.0048
     17 C         143.5748  139.2387  165.7361 C.3     1  UNL1        0.0254
     18 C         144.3373  139.3864  164.4528 C.3     1  UNL1        0.0048
     19 C         141.9465  142.4631  169.4714 C.1     1  UNL1        0.1005
     20 N         142.0435  142.9769  170.8772 N.1     1  UNL1       -0.1908
     21 C         137.6646  141.6971  157.9691 C.2     1  UNL1        0.2459
     22 O         137.8886  142.8768  157.0702 O.2     1  UNL1       -0.2701
     23 N         136.8025  140.5582  157.5112 N.am    1  UNL1       -0.2975
     24 H         136.6555  139.7839  158.1011 H       1  UNL1        0.1499
     25 C         136.1643  140.5991  156.1543 C.3     1  UNL1        0.1355
     26 C         134.6710  140.6662  156.0295 C.3     1  UNL1        0.2101
     27 C         133.6839  139.8406  156.8002 C.3     1  UNL1        0.1483
     28 N         132.3055  140.2349  156.3592 N.am    1  UNL1       -0.2059
     29 C         132.4407  141.3043  155.3160 C.2     1  UNL1        0.4098
     30 O         131.3121  141.9871  154.6019 O.2     1  UNL1       -0.2258
     31 O         133.9028  141.5708  155.1123 O.3     1  UNL1       -0.4345
     32 C         131.0179  139.6607  156.8715 C.ar    1  UNL1        0.1401
     33 C         131.0317  138.6924  158.0170 C.ar    1  UNL1        0.0357
     34 C         129.7441  138.1182  158.5292 C.ar    1  UNL1        0.0158
     35 C         128.4427  138.5124  157.8960 C.ar    1  UNL1        0.0769
     36 CL        127.1552  137.9382  158.4083 Cl      1  UNL1       -0.0806
     37 C         128.4290  139.4807  156.7505 C.ar    1  UNL1        0.1116
     38 N         129.7165  140.0549  156.2383 N.ar    1  UNL1       -0.2278
@<TRIPOS>BOND
     1    16    17    1
     2    17    18    1
     3    17     7    1
     4     7     8   ar
     5     8     9   ar
     6     9    19    1
     7    19    20    3
     8     9    10   ar
     9    10    11   ar
    10    11    12   ar
    11    12    13   ar
    12    13     1    1
    13     1     2   ar
    14     2     3   ar
    15     3     4   ar
    16     4    21    1
    17    21    22    2
    18    21    23   am
    19    23    25    1
    20    25    26    1
    21    26    27    1
    22    27    28    1
    23    28    32    1
    24    32    33   ar
    25    33    34   ar
    26    34    35   ar
    27    35    36    1
    28    35    37   ar
    29    37    38   ar
    30    28    29   am
    31    29    30    2
    32    29    31    1
    33     4     5   ar
    34     5     6   ar
    35    13    14   ar
    36    14    15   ar
    37    15     7   ar
    38    15    11   ar
    39     6     1   ar
    40    31    26    1
    41    38    32   ar
    42    23    24    1
