@<TRIPOS>MOLECULE
*****
 39 44 0 0 0
SMALL
GASTEIGER

@<TRIPOS>ATOM
      1 C         137.8278  142.9826  162.9019 C.3     1  UNL1        0.0932
      2 C         138.0731  142.6938  161.4506 C.3     1  UNL1        0.0286
      3 C         138.1008  141.2758  160.9623 C.3     1  UNL1        0.0193
      4 C         137.8832  140.1466  161.9252 C.3     1  UNL1        0.0700
      5 C         137.6379  140.4353  163.3767 C.3     1  UNL1        0.0193
      6 C         137.6102  141.8533  163.8650 C.3     1  UNL1        0.0286
      7 C         137.8590  140.9071  162.2397 C.3     1  UNL1        0.1562
      8 O         137.8340  142.1894  162.6813 O.3     1  UNL1       -0.3572
      9 N         137.9109  138.7286  161.4369 N.3     1  UNL1       -0.2926
     10 H         137.3403  138.6969  160.5920 H       1  UNL1        0.1236
     11 C         139.2192  138.0766  161.1005 C.3     1  UNL1        0.1152
     12 C         140.3984  138.2473  162.0118 C.ar    1  UNL1        0.0765
     13 C         140.5129  137.4147  163.2542 C.ar    1  UNL1        0.0193
     14 C         141.6921  137.5853  164.1654 C.ar    1  UNL1        0.0411
     15 C         142.7568  138.5886  163.8342 C.ar    1  UNL1        0.1708
     16 C         142.6424  139.4212  162.5918 C.ar    1  UNL1        0.1682
     17 N         141.4632  139.2505  161.6806 N.ar    1  UNL1       -0.2304
     18 N         143.7072  140.4245  162.2605 N.am    1  UNL1       -0.2639
     19 C         144.8864  140.5951  163.1718 C.2     1  UNL1        0.2718
     20 O         145.9511  141.5984  162.8406 O.2     1  UNL1       -0.2707
     21 C         145.0008  139.7625  164.4142 C.3     1  UNL1        0.2898
     22 O         143.9360  138.7592  164.7454 O.3     1  UNL1       -0.4628
     23 H         143.6320  140.9709  161.4451 H       1  UNL1        0.1565
     24 C         137.8001  144.4006  163.3903 C.3     1  UNL1        0.0319
     25 C         138.8970  144.9098  164.2777 C.3     1  UNL1        0.0304
     26 C         142.2411  141.8080  167.1839 C.ar    1  UNL1        0.1931
     27 C         143.0030  142.2018  165.9533 C.ar    1  UNL1        0.0623
     28 C         142.3574  143.0757  164.9190 C.ar    1  UNL1        0.1019
     29 N         143.1193  143.4694  163.6884 N.ar    1  UNL1       -0.2422
     30 C         142.4738  144.3433  162.6542 C.ar    1  UNL1        0.0986
     31 C         141.0663  144.8234  162.8507 C.ar    1  UNL1        0.0179
     32 C         140.3044  144.4297  164.0813 C.ar    1  UNL1       -0.0013
     33 C         140.9500  143.5558  165.1154 C.ar    1  UNL1        0.0982
     34 N         140.1881  143.1620  166.3461 N.ar    1  UNL1       -0.2079
     35 C         140.8336  142.2881  167.3803 C.ar    1  UNL1        0.2602
     36 C         142.5933  139.4634  168.2463 C.3     1  UNL1        0.2527
     37 O         142.8866  140.9341  168.2181 O.3     1  UNL1       -0.4667
     38 O         140.0717  141.8943  168.6110 O.3     1  UNL1       -0.4541
     39 C         140.2284  142.6860  169.8754 C.3     1  UNL1        0.2543
@<TRIPOS>BOND
     1    36    37    1
     2    37    26    1
     3    26    27   ar
     4    27    28   ar
     5    28    29   ar
     6    29    30   ar
     7    30    31   ar
     8    31    32   ar
     9    32    25    1
    10    25    24    1
    11    24     1    1
    12     1     2    1
    13     2     3    1
    14     3     4    1
    15     4     9    1
    16     9    11    1
    17    11    12    1
    18    12    13   ar
    19    13    14   ar
    20    14    15   ar
    21    15    16   ar
    22    16    17   ar
    23    16    18    1
    24    18    19   am
    25    19    20    2
    26    19    21    1
    27    21    22    1
    28     4     5    1
    29     5     6    1
    30     4     7    1
    31     7     8    1
    32    32    33   ar
    33    33    34   ar
    34    34    35   ar
    35    35    38    1
    36    38    39    1
    37    35    26   ar
    38    33    28   ar
    39     6     1    1
    40     8     1    1
    41    17    12   ar
    42    22    15    1
    43     9    10    1
    44    18    23    1
@<TRIPOS>MOLECULE
*****
 39 44 0 0 0
SMALL
GASTEIGER

@<TRIPOS>ATOM
      1 C         142.1653  137.9685  164.0760 C.3     1  UNL1        0.0932
      2 C         143.0307  138.5348  165.1625 C.3     1  UNL1        0.0286
      3 C         144.1817  139.4312  164.8139 C.3     1  UNL1        0.0193
      4 C         144.4675  139.7613  163.3789 C.3     1  UNL1        0.0700
      5 C         143.6021  139.1950  162.2923 C.3     1  UNL1        0.0193
      6 C         142.4510  138.2986  162.6409 C.3     1  UNL1        0.0286
      7 C         143.8256  139.2656  163.5208 C.3     1  UNL1        0.1562
      8 O         142.7847  138.4550  163.8360 O.3     1  UNL1       -0.3572
      9 N         145.6186  140.6576  163.0303 N.3     1  UNL1       -0.2926
     10 H         145.6804  140.6751  162.0123 H       1  UNL1        0.1236
     11 C         145.6226  142.0858  163.4889 C.3     1  UNL1        0.1152
     12 C         144.4264  142.9563  163.2416 C.ar    1  UNL1        0.0765
     13 C         143.7520  143.6478  164.3891 C.ar    1  UNL1        0.0193
     14 C         142.5557  144.5184  164.1418 C.ar    1  UNL1        0.0411
     15 C         142.0339  144.6975  162.7470 C.ar    1  UNL1        0.1708
     16 C         142.7084  144.0059  161.5994 C.ar    1  UNL1        0.1682
     17 N         143.9046  143.1354  161.8468 N.ar    1  UNL1       -0.2304
     18 N         142.1866  144.1850  160.2045 N.am    1  UNL1       -0.2639
     19 C         140.9904  145.0555  159.9572 C.2     1  UNL1        0.2718
     20 O         140.4686  145.2346  158.5624 O.2     1  UNL1       -0.2707
     21 C         140.3159  145.7471  161.1048 C.3     1  UNL1        0.2898
     22 O         140.8377  145.5680  162.4997 O.3     1  UNL1       -0.4628
     23 H         142.6293  143.7311  159.4513 H       1  UNL1        0.1565
     24 C         141.0142  137.0721  164.4246 C.3     1  UNL1        0.0319
     25 C         139.6743  137.6636  164.7483 C.3     1  UNL1        0.0304
     26 C         139.1910  143.0502  164.7489 C.ar    1  UNL1        0.1931
     27 C         138.5123  142.5718  163.4998 C.ar    1  UNL1        0.0623
     28 C         138.4634  141.1055  163.1873 C.ar    1  UNL1        0.1019
     29 N         137.7846  140.6271  161.9382 N.ar    1  UNL1       -0.2422
     30 C         137.7358  139.1608  161.6258 C.ar    1  UNL1        0.0986
     31 C         138.3657  138.1730  162.5625 C.ar    1  UNL1        0.0179
     32 C         139.0444  138.6514  163.8116 C.ar    1  UNL1       -0.0013
     33 C         139.0933  140.1176  164.1240 C.ar    1  UNL1        0.0982
     34 N         139.7721  140.5961  165.3732 N.ar    1  UNL1       -0.2079
     35 C         139.8209  142.0624  165.6856 C.ar    1  UNL1        0.2602
     36 C         138.1849  145.1337  165.9309 C.3     1  UNL1        0.2527
     37 O         139.2399  144.5166  165.0614 O.3     1  UNL1       -0.4667
     38 O         140.4997  142.5409  166.9348 O.3     1  UNL1       -0.4541
     39 C         141.8787  142.0562  167.2717 C.3     1  UNL1        0.2543
@<TRIPOS>BOND
     1    36    37    1
     2    37    26    1
     3    26    27   ar
     4    27    28   ar
     5    28    29   ar
     6    29    30   ar
     7    30    31   ar
     8    31    32   ar
     9    32    25    1
    10    25    24    1
    11    24     1    1
    12     1     2    1
    13     2     3    1
    14     3     4    1
    15     4     9    1
    16     9    11    1
    17    11    12    1
    18    12    13   ar
    19    13    14   ar
    20    14    15   ar
    21    15    16   ar
    22    16    17   ar
    23    16    18    1
    24    18    19   am
    25    19    20    2
    26    19    21    1
    27    21    22    1
    28     4     5    1
    29     5     6    1
    30     4     7    1
    31     7     8    1
    32    32    33   ar
    33    33    34   ar
    34    34    35   ar
    35    35    38    1
    36    38    39    1
    37    35    26   ar
    38    33    28   ar
    39     6     1    1
    40     8     1    1
    41    17    12   ar
    42    22    15    1
    43     9    10    1
    44    18    23    1
@<TRIPOS>MOLECULE
*****
 39 44 0 0 0
SMALL
GASTEIGER

@<TRIPOS>ATOM
      1 C         141.8503  138.0826  164.2135 C.3     1  UNL1        0.0932
      2 C         142.8706  138.4604  165.2461 C.3     1  UNL1        0.0286
      3 C         144.1020  139.2158  164.8424 C.3     1  UNL1        0.0193
      4 C         144.3131  139.5934  163.4061 C.3     1  UNL1        0.0700
      5 C         143.2927  139.2156  162.3735 C.3     1  UNL1        0.0193
      6 C         142.0613  138.4602  162.7772 C.3     1  UNL1        0.0286
      7 C         143.6227  139.1796  163.5793 C.3     1  UNL1        0.1562
      8 O         142.5092  138.4964  163.9444 O.3     1  UNL1       -0.3572
      9 N         145.5444  140.3489  163.0024 N.3     1  UNL1       -0.2926
     10 H         145.6424  140.2347  161.9936 H       1  UNL1        0.1236
     11 C         145.6488  141.8185  163.2840 C.3     1  UNL1        0.1152
     12 C         144.4309  142.6888  163.1882 C.ar    1  UNL1        0.0765
     13 C         143.7362  143.1467  164.4363 C.ar    1  UNL1        0.0193
     14 C         142.5183  144.0171  164.3405 C.ar    1  UNL1        0.0411
     15 C         141.9950  144.4295  162.9966 C.ar    1  UNL1        0.1708
     16 C         142.6897  143.9716  161.7486 C.ar    1  UNL1        0.1682
     17 N         143.9076  143.1013  161.8444 N.ar    1  UNL1       -0.2304
     18 N         142.1664  144.3840  160.4046 N.am    1  UNL1       -0.2639
     19 C         140.9485  145.2544  160.3088 C.2     1  UNL1        0.2718
     20 O         140.4252  145.6668  158.9649 O.2     1  UNL1       -0.2707
     21 C         140.2538  145.7123  161.5570 C.3     1  UNL1        0.2898
     22 O         140.7771  145.2999  162.9008 O.3     1  UNL1       -0.4628
     23 H         142.6223  144.0835  159.5854 H       1  UNL1        0.1565
     24 C         140.6189  137.3271  164.6172 C.3     1  UNL1        0.0319
     25 C         139.3846  138.0716  165.0324 C.3     1  UNL1        0.0304
     26 C         140.6266  141.9178  168.6260 C.ar    1  UNL1        0.1931
     27 C         140.1883  142.6351  167.3837 C.ar    1  UNL1        0.0623
     28 C         139.7683  141.8528  166.1746 C.ar    1  UNL1        0.1019
     29 N         139.3300  142.5701  164.9323 N.ar    1  UNL1       -0.2422
     30 C         138.9099  141.7879  163.7234 C.ar    1  UNL1        0.0986
     31 C         138.9282  140.2884  163.7567 C.ar    1  UNL1        0.0179
     32 C         139.3664  139.5711  164.9990 C.ar    1  UNL1       -0.0013
     33 C         139.7865  140.3533  166.2080 C.ar    1  UNL1        0.0982
     34 N         140.2248  139.6360  167.4504 N.ar    1  UNL1       -0.2079
     35 C         140.6448  140.4183  168.6593 C.ar    1  UNL1        0.2602
     36 C         142.5010  142.9659  170.0883 C.3     1  UNL1        0.2527
     37 O         141.0467  142.7000  169.8351 O.3     1  UNL1       -0.4667
     38 O         141.0831  139.7010  169.9017 O.3     1  UNL1       -0.4541
     39 C         142.4890  139.1907  170.0167 C.3     1  UNL1        0.2543
@<TRIPOS>BOND
     1    36    37    1
     2    37    26    1
     3    26    27   ar
     4    27    28   ar
     5    28    29   ar
     6    29    30   ar
     7    30    31   ar
     8    31    32   ar
     9    32    25    1
    10    25    24    1
    11    24     1    1
    12     1     2    1
    13     2     3    1
    14     3     4    1
    15     4     9    1
    16     9    11    1
    17    11    12    1
    18    12    13   ar
    19    13    14   ar
    20    14    15   ar
    21    15    16   ar
    22    16    17   ar
    23    16    18    1
    24    18    19   am
    25    19    20    2
    26    19    21    1
    27    21    22    1
    28     4     5    1
    29     5     6    1
    30     4     7    1
    31     7     8    1
    32    32    33   ar
    33    33    34   ar
    34    34    35   ar
    35    35    38    1
    36    38    39    1
    37    35    26   ar
    38    33    28   ar
    39     6     1    1
    40     8     1    1
    41    17    12   ar
    42    22    15    1
    43     9    10    1
    44    18    23    1
@<TRIPOS>MOLECULE
*****
 39 44 0 0 0
SMALL
GASTEIGER

@<TRIPOS>ATOM
      1 C         140.9893  144.8204  162.8138 C.3     1  UNL1        0.0932
      2 C         141.2499  144.0746  161.5388 C.3     1  UNL1        0.0286
      3 C         142.6161  143.5222  161.2588 C.3     1  UNL1        0.0193
      4 C         143.7217  143.7155  162.2538 C.3     1  UNL1        0.0700
      5 C         143.4611  144.4613  163.5290 C.3     1  UNL1        0.0193
      6 C         142.0950  145.0138  163.8090 C.3     1  UNL1        0.0286
      7 C         142.9896  144.0364  162.4514 C.3     1  UNL1        0.1562
      8 O         141.7542  144.5360  162.7046 O.3     1  UNL1       -0.3572
      9 N         145.0878  143.1631  161.9738 N.3     1  UNL1       -0.2926
     10 H         145.7519  143.9174  162.1482 H       1  UNL1        0.1236
     11 C         145.5828  141.9667  162.7312 C.3     1  UNL1        0.1152
     12 C         144.6231  140.8897  163.1424 C.ar    1  UNL1        0.0765
     13 C         144.8115  140.1757  164.4480 C.ar    1  UNL1        0.0193
     14 C         143.8519  139.0986  164.8591 C.ar    1  UNL1        0.0411
     15 C         142.7039  138.7355  163.9647 C.ar    1  UNL1        0.1708
     16 C         142.5155  139.4495  162.6590 C.ar    1  UNL1        0.1682
     17 N         143.4751  140.5266  162.2479 N.ar    1  UNL1       -0.2304
     18 N         141.3674  139.0864  161.7645 N.am    1  UNL1       -0.2639
     19 C         140.4078  138.0093  162.1756 C.2     1  UNL1        0.2718
     20 O         139.2598  137.6462  161.2811 O.2     1  UNL1       -0.2707
     21 C         140.5962  137.2953  163.4813 C.3     1  UNL1        0.2898
     22 O         141.7443  137.6584  164.3758 O.3     1  UNL1       -0.4628
     23 H         141.2438  139.5550  160.9075 H       1  UNL1        0.1565
     24 C         139.6232  145.3729  163.0939 C.3     1  UNL1        0.0319
     25 C         138.7440  144.7167  164.1168 C.3     1  UNL1        0.0304
     26 C         140.3942  140.7012  167.3421 C.ar    1  UNL1        0.1931
     27 C         139.5971  140.0551  166.2480 C.ar    1  UNL1        0.0623
     28 C         138.9853  140.8975  165.1681 C.ar    1  UNL1        0.1019
     29 N         138.1882  140.2513  164.0740 N.ar    1  UNL1       -0.2422
     30 C         137.5763  141.0937  162.9942 C.ar    1  UNL1        0.0986
     31 C         137.7616  142.5821  163.0084 C.ar    1  UNL1        0.0179
     32 C         138.5587  143.2282  164.1025 C.ar    1  UNL1       -0.0013
     33 C         139.1706  142.3859  165.1824 C.ar    1  UNL1        0.0982
     34 N         139.9677  143.0320  166.2766 N.ar    1  UNL1       -0.2079
     35 C         140.5795  142.1897  167.3564 C.ar    1  UNL1        0.2602
     36 C         142.4664  139.5200  168.3721 C.3     1  UNL1        0.2527
     37 O         141.0061  139.8589  168.4221 O.3     1  UNL1       -0.4667
     38 O         141.3767  142.8358  168.4506 O.3     1  UNL1       -0.4541
     39 C         140.6807  143.3922  169.6573 C.3     1  UNL1        0.2543
@<TRIPOS>BOND
     1    36    37    1
     2    37    26    1
     3    26    27   ar
     4    27    28   ar
     5    28    29   ar
     6    29    30   ar
     7    30    31   ar
     8    31    32   ar
     9    32    25    1
    10    25    24    1
    11    24     1    1
    12     1     2    1
    13     2     3    1
    14     3     4    1
    15     4     9    1
    16     9    11    1
    17    11    12    1
    18    12    13   ar
    19    13    14   ar
    20    14    15   ar
    21    15    16   ar
    22    16    17   ar
    23    16    18    1
    24    18    19   am
    25    19    20    2
    26    19    21    1
    27    21    22    1
    28     4     5    1
    29     5     6    1
    30     4     7    1
    31     7     8    1
    32    32    33   ar
    33    33    34   ar
    34    34    35   ar
    35    35    38    1
    36    38    39    1
    37    35    26   ar
    38    33    28   ar
    39     6     1    1
    40     8     1    1
    41    17    12   ar
    42    22    15    1
    43     9    10    1
    44    18    23    1
@<TRIPOS>MOLECULE
*****
 39 44 0 0 0
SMALL
GASTEIGER

@<TRIPOS>ATOM
      1 C         143.6963  138.8131  163.7776 C.3     1  UNL1        0.0932
      2 C         143.3608  138.6988  162.3201 C.3     1  UNL1        0.0286
      3 C         142.0413  138.1244  161.8970 C.3     1  UNL1        0.0193
      4 C         141.0574  137.6642  162.9314 C.3     1  UNL1        0.0700
      5 C         141.3928  137.7785  164.3890 C.3     1  UNL1        0.0193
      6 C         142.7123  138.3530  164.8121 C.3     1  UNL1        0.0286
      7 C         141.7677  137.9722  163.2116 C.3     1  UNL1        0.1562
      8 O         142.9608  138.4917  163.5942 O.3     1  UNL1       -0.3572
      9 N         139.7379  137.0898  162.5083 N.3     1  UNL1       -0.2926
     10 H         139.6730  136.1618  162.9266 H       1  UNL1        0.1236
     11 C         138.4646  137.8070  162.8464 C.3     1  UNL1        0.1152
     12 C         138.3507  139.2841  162.6112 C.ar    1  UNL1        0.0765
     13 C         138.1436  139.8085  161.2213 C.ar    1  UNL1        0.0193
     14 C         138.0297  141.2856  160.9861 C.ar    1  UNL1        0.0411
     15 C         138.1228  142.2383  162.1410 C.ar    1  UNL1        0.1708
     16 C         138.3299  141.7138  163.5309 C.ar    1  UNL1        0.1682
     17 N         138.4439  140.2368  163.7661 N.ar    1  UNL1       -0.2304
     18 N         138.4231  142.6665  164.6859 N.am    1  UNL1       -0.2639
     19 C         138.3092  144.1436  164.4508 C.2     1  UNL1        0.2718
     20 O         138.4024  145.0963  165.6056 O.2     1  UNL1       -0.2707
     21 C         138.1021  144.6680  163.0607 C.3     1  UNL1        0.2898
     22 O         138.0089  143.7153  161.9059 O.3     1  UNL1       -0.4628
     23 H         138.5591  142.3223  165.5982 H       1  UNL1        0.1565
     24 C         145.0158  139.3875  164.2007 C.3     1  UNL1        0.0319
     25 C         145.1931  140.8744  164.2878 C.3     1  UNL1        0.0304
     26 C         142.3629  143.9889  160.8908 C.ar    1  UNL1        0.1931
     27 C         141.7103  144.1376  162.2331 C.ar    1  UNL1        0.0623
     28 C         142.2547  143.3961  163.4181 C.ar    1  UNL1        0.1019
     29 N         141.6021  143.5449  164.7604 N.ar    1  UNL1       -0.2422
     30 C         142.1465  142.8035  165.9452 C.ar    1  UNL1        0.0986
     31 C         143.3435  141.9133  165.7877 C.ar    1  UNL1        0.0179
     32 C         143.9961  141.7646  164.4454 C.ar    1  UNL1       -0.0013
     33 C         143.4517  142.5060  163.2605 C.ar    1  UNL1        0.0982
     34 N         144.1043  142.3573  161.9181 N.ar    1  UNL1       -0.2079
     35 C         143.5599  143.0987  160.7333 C.ar    1  UNL1        0.2602
     36 C         140.3736  145.1319  159.6715 C.3     1  UNL1        0.2527
     37 O         141.8184  144.7303  159.7059 O.3     1  UNL1       -0.4667
     38 O         144.2125  142.9500  159.3908 O.3     1  UNL1       -0.4541
     39 C         143.7304  141.8995  158.4348 C.3     1  UNL1        0.2543
@<TRIPOS>BOND
     1    36    37    1
     2    37    26    1
     3    26    27   ar
     4    27    28   ar
     5    28    29   ar
     6    29    30   ar
     7    30    31   ar
     8    31    32   ar
     9    32    25    1
    10    25    24    1
    11    24     1    1
    12     1     2    1
    13     2     3    1
    14     3     4    1
    15     4     9    1
    16     9    11    1
    17    11    12    1
    18    12    13   ar
    19    13    14   ar
    20    14    15   ar
    21    15    16   ar
    22    16    17   ar
    23    16    18    1
    24    18    19   am
    25    19    20    2
    26    19    21    1
    27    21    22    1
    28     4     5    1
    29     5     6    1
    30     4     7    1
    31     7     8    1
    32    32    33   ar
    33    33    34   ar
    34    34    35   ar
    35    35    38    1
    36    38    39    1
    37    35    26   ar
    38    33    28   ar
    39     6     1    1
    40     8     1    1
    41    17    12   ar
    42    22    15    1
    43     9    10    1
    44    18    23    1
@<TRIPOS>MOLECULE
*****
 39 44 0 0 0
SMALL
GASTEIGER

@<TRIPOS>ATOM
      1 C         139.3604  138.1437  164.3507 C.3     1  UNL1        0.0932
      2 C         139.0762  138.4069  162.9016 C.3     1  UNL1        0.0286
      3 C         140.1190  138.1065  161.8661 C.3     1  UNL1        0.0193
      4 C         141.4461  137.5428  162.2797 C.3     1  UNL1        0.0700
      5 C         141.7303  137.2795  163.7289 C.3     1  UNL1        0.0193
      6 C         140.6875  137.5800  164.7644 C.3     1  UNL1        0.0286
      7 C         140.9060  137.6913  162.8833 C.3     1  UNL1        0.1562
      8 O         139.9630  137.9630  163.8196 O.3     1  UNL1       -0.3572
      9 N         142.4889  137.2423  161.2443 N.3     1  UNL1       -0.2926
     10 H         142.0605  137.4178  160.3354 H       1  UNL1        0.1236
     11 C         143.7940  137.9814  161.2577 C.3     1  UNL1        0.1152
     12 C         143.8100  139.4723  161.4226 C.ar    1  UNL1        0.0765
     13 C         143.5165  140.3597  160.2495 C.ar    1  UNL1        0.0193
     14 C         143.5324  141.8506  160.4143 C.ar    1  UNL1        0.0411
     15 C         143.8419  142.4539  161.7523 C.ar    1  UNL1        0.1708
     16 C         144.1355  141.5665  162.9254 C.ar    1  UNL1        0.1682
     17 N         144.1195  140.0756  162.7605 N.ar    1  UNL1       -0.2304
     18 N         144.4450  142.1698  164.2634 N.am    1  UNL1       -0.2639
     19 C         144.4610  143.6606  164.4282 C.2     1  UNL1        0.2718
     20 O         144.7705  144.2640  165.7662 O.2     1  UNL1       -0.2707
     21 C         144.1674  144.5481  163.2551 C.3     1  UNL1        0.2898
     22 O         143.8579  143.9448  161.9171 O.3     1  UNL1       -0.4628
     23 H         144.6376  141.5873  165.0334 H       1  UNL1        0.1565
     24 C         138.3175  138.4442  165.3862 C.3     1  UNL1        0.0319
     25 C         138.1121  139.8536  165.8567 C.3     1  UNL1        0.0304
     26 C         140.0906  143.8762  162.8313 C.ar    1  UNL1        0.1931
     27 C         140.9963  143.7670  164.0220 C.ar    1  UNL1        0.0623
     28 C         140.7281  142.7340  165.0761 C.ar    1  UNL1        0.1019
     29 N         141.6338  142.6248  166.2667 N.ar    1  UNL1       -0.2422
     30 C         141.3656  141.5918  167.3207 C.ar    1  UNL1        0.0986
     31 C         140.1917  140.6681  167.1841 C.ar    1  UNL1        0.0179
     32 C         139.2860  140.7773  165.9934 C.ar    1  UNL1       -0.0013
     33 C         139.5542  141.8103  164.9394 C.ar    1  UNL1        0.0982
     34 N         138.6485  141.9195  163.7486 N.ar    1  UNL1       -0.2079
     35 C         138.9167  142.9525  162.6946 C.ar    1  UNL1        0.2602
     36 C         139.6369  146.2236  161.8143 C.3     1  UNL1        0.2527
     37 O         140.3588  144.9093  161.7772 O.3     1  UNL1       -0.4667
     38 O         138.0110  143.0618  161.5039 O.3     1  UNL1       -0.4541
     39 C         138.3882  142.4003  160.2115 C.3     1  UNL1        0.2543
@<TRIPOS>BOND
     1    36    37    1
     2    37    26    1
     3    26    27   ar
     4    27    28   ar
     5    28    29   ar
     6    29    30   ar
     7    30    31   ar
     8    31    32   ar
     9    32    25    1
    10    25    24    1
    11    24     1    1
    12     1     2    1
    13     2     3    1
    14     3     4    1
    15     4     9    1
    16     9    11    1
    17    11    12    1
    18    12    13   ar
    19    13    14   ar
    20    14    15   ar
    21    15    16   ar
    22    16    17   ar
    23    16    18    1
    24    18    19   am
    25    19    20    2
    26    19    21    1
    27    21    22    1
    28     4     5    1
    29     5     6    1
    30     4     7    1
    31     7     8    1
    32    32    33   ar
    33    33    34   ar
    34    34    35   ar
    35    35    38    1
    36    38    39    1
    37    35    26   ar
    38    33    28   ar
    39     6     1    1
    40     8     1    1
    41    17    12   ar
    42    22    15    1
    43     9    10    1
    44    18    23    1
@<TRIPOS>MOLECULE
*****
 39 44 0 0 0
SMALL
GASTEIGER

@<TRIPOS>ATOM
      1 C         143.9777  142.3515  163.2393 C.3     1  UNL1        0.0932
      2 C         143.6188  142.8255  161.8622 C.3     1  UNL1        0.0286
      3 C         142.6945  143.9941  161.6884 C.3     1  UNL1        0.0193
      4 C         142.1291  144.6885  162.8917 C.3     1  UNL1        0.0700
      5 C         142.4881  144.2145  164.2689 C.3     1  UNL1        0.0193
      6 C         143.4124  143.0460  164.4427 C.3     1  UNL1        0.0286
      7 C         142.6315  144.0526  163.0371 C.3     1  UNL1        0.1562
      8 O         143.4673  142.9960  163.1942 O.3     1  UNL1       -0.3572
      9 N         141.2048  145.8571  162.7179 N.3     1  UNL1       -0.2926
     10 H         141.4242  146.2740  161.8133 H       1  UNL1        0.1236
     11 C         139.7196  145.6499  162.7505 C.3     1  UNL1        0.1152
     12 C         139.1466  144.2875  162.4942 C.ar    1  UNL1        0.0765
     13 C         138.5991  143.4779  163.6320 C.ar    1  UNL1        0.0193
     14 C         138.0261  142.1156  163.3757 C.ar    1  UNL1        0.0411
     15 C         138.0006  141.5629  161.9815 C.ar    1  UNL1        0.1708
     16 C         138.5481  142.3725  160.8437 C.ar    1  UNL1        0.1682
     17 N         139.1211  143.7348  161.1000 N.ar    1  UNL1       -0.2304
     18 N         138.5226  141.8197  159.4494 N.am    1  UNL1       -0.2639
     19 C         137.9496  140.4574  159.1931 C.2     1  UNL1        0.2718
     20 O         137.9241  139.9047  157.7989 O.2     1  UNL1       -0.2707
     21 C         137.4020  139.6478  160.3310 C.3     1  UNL1        0.2898
     22 O         137.4275  140.2005  161.7252 O.3     1  UNL1       -0.4628
     23 H         138.8820  142.3511  158.7026 H       1  UNL1        0.1565
     24 C         144.9020  141.1830  163.4131 C.3     1  UNL1        0.0319
     25 C         144.3965  139.9118  164.0282 C.3     1  UNL1        0.0304
     26 C         139.1897  139.2374  165.3261 C.ar    1  UNL1        0.1931
     27 C         139.4016  138.4796  164.0491 C.ar    1  UNL1        0.0623
     28 C         140.7564  138.4587  163.4054 C.ar    1  UNL1        0.1019
     29 N         140.9683  137.7008  162.1284 N.ar    1  UNL1       -0.2422
     30 C         142.3230  137.6800  161.4847 C.ar    1  UNL1        0.0986
     31 C         143.4657  138.4170  162.1180 C.ar    1  UNL1        0.0179
     32 C         143.2538  139.1748  163.3950 C.ar    1  UNL1       -0.0013
     33 C         141.8991  139.1957  164.0387 C.ar    1  UNL1        0.0982
     34 N         141.6871  139.9535  165.3157 N.ar    1  UNL1       -0.2079
     35 C         140.3324  139.9744  165.9594 C.ar    1  UNL1        0.2602
     36 C         137.5214  138.3094  167.0884 C.3     1  UNL1        0.2527
     37 O         137.8350  139.2583  165.9699 O.3     1  UNL1       -0.4667
     38 O         140.1204  140.7323  167.2364 O.3     1  UNL1       -0.4541
     39 C         140.4927  140.1090  168.5490 C.3     1  UNL1        0.2543
@<TRIPOS>BOND
     1    36    37    1
     2    37    26    1
     3    26    27   ar
     4    27    28   ar
     5    28    29   ar
     6    29    30   ar
     7    30    31   ar
     8    31    32   ar
     9    32    25    1
    10    25    24    1
    11    24     1    1
    12     1     2    1
    13     2     3    1
    14     3     4    1
    15     4     9    1
    16     9    11    1
    17    11    12    1
    18    12    13   ar
    19    13    14   ar
    20    14    15   ar
    21    15    16   ar
    22    16    17   ar
    23    16    18    1
    24    18    19   am
    25    19    20    2
    26    19    21    1
    27    21    22    1
    28     4     5    1
    29     5     6    1
    30     4     7    1
    31     7     8    1
    32    32    33   ar
    33    33    34   ar
    34    34    35   ar
    35    35    38    1
    36    38    39    1
    37    35    26   ar
    38    33    28   ar
    39     6     1    1
    40     8     1    1
    41    17    12   ar
    42    22    15    1
    43     9    10    1
    44    18    23    1
@<TRIPOS>MOLECULE
*****
 39 44 0 0 0
SMALL
GASTEIGER

@<TRIPOS>ATOM
      1 C         142.5640  144.4071  163.6176 C.3     1  UNL1        0.0932
      2 C         141.3037  144.3799  164.4305 C.3     1  UNL1        0.0286
      3 C         139.9760  144.2211  163.7508 C.3     1  UNL1        0.0193
      4 C         139.9086  144.0895  162.2581 C.3     1  UNL1        0.0700
      5 C         141.1689  144.1167  161.4451 C.3     1  UNL1        0.0193
      6 C         142.4966  144.2755  162.1249 C.3     1  UNL1        0.0286
      7 C         140.6592  144.1745  162.5857 C.3     1  UNL1        0.1562
      8 O         141.8598  144.3181  163.2004 O.3     1  UNL1       -0.3572
      9 N         138.5809  143.9307  161.5784 N.3     1  UNL1       -0.2926
     10 H         138.5572  144.6086  160.8166 H       1  UNL1        0.1236
     11 C         138.1925  142.6061  160.9915 C.3     1  UNL1        0.1152
     12 C         138.4424  141.3427  161.7606 C.ar    1  UNL1        0.0765
     13 C         139.1017  140.1743  161.0898 C.ar    1  UNL1        0.0193
     14 C         139.3516  138.9110  161.8588 C.ar    1  UNL1        0.0411
     15 C         138.9422  138.8160  163.2987 C.ar    1  UNL1        0.1708
     16 C         138.2829  139.9845  163.9695 C.ar    1  UNL1        0.1682
     17 N         138.0330  141.2478  163.2005 N.ar    1  UNL1       -0.2304
     18 N         137.8735  139.8896  165.4095 N.am    1  UNL1       -0.2639
     19 C         138.1234  138.6262  166.1786 C.2     1  UNL1        0.2718
     20 O         137.7140  138.5313  167.6185 O.2     1  UNL1       -0.2707
     21 C         138.7827  137.4578  165.5077 C.3     1  UNL1        0.2898
     22 O         139.1921  137.5527  164.0678 O.3     1  UNL1       -0.4628
     23 H         137.4408  140.6565  165.8498 H       1  UNL1        0.1565
     24 C         143.8917  144.5659  164.2974 C.3     1  UNL1        0.0319
     25 C         144.6151  143.3608  164.8209 C.3     1  UNL1        0.0304
     26 C         141.4699  140.5712  168.2233 C.ar    1  UNL1        0.1931
     27 C         141.6485  139.7017  167.0142 C.ar    1  UNL1        0.0623
     28 C         142.4794  140.1817  165.8612 C.ar    1  UNL1        0.1019
     29 N         142.6580  139.3122  164.6521 N.ar    1  UNL1       -0.2422
     30 C         143.4889  139.7922  163.4993 C.ar    1  UNL1        0.0986
     31 C         144.1413  141.1417  163.5555 C.ar    1  UNL1        0.0179
     32 C         143.9627  142.0112  164.7647 C.ar    1  UNL1       -0.0013
     33 C         143.1318  141.5312  165.9175 C.ar    1  UNL1        0.0982
     34 N         142.9532  142.4007  167.1267 N.ar    1  UNL1       -0.2079
     35 C         142.1223  141.9207  168.2796 C.ar    1  UNL1        0.2602
     36 C         139.3104  140.7273  169.6594 C.3     1  UNL1        0.2527
     37 O         140.6390  140.0912  169.3762 O.3     1  UNL1       -0.4667
     38 O         141.9437  142.7902  169.4888 O.3     1  UNL1       -0.4541
     39 C         143.0844  142.9934  170.4415 C.3     1  UNL1        0.2543
@<TRIPOS>BOND
     1    36    37    1
     2    37    26    1
     3    26    27   ar
     4    27    28   ar
     5    28    29   ar
     6    29    30   ar
     7    30    31   ar
     8    31    32   ar
     9    32    25    1
    10    25    24    1
    11    24     1    1
    12     1     2    1
    13     2     3    1
    14     3     4    1
    15     4     9    1
    16     9    11    1
    17    11    12    1
    18    12    13   ar
    19    13    14   ar
    20    14    15   ar
    21    15    16   ar
    22    16    17   ar
    23    16    18    1
    24    18    19   am
    25    19    20    2
    26    19    21    1
    27    21    22    1
    28     4     5    1
    29     5     6    1
    30     4     7    1
    31     7     8    1
    32    32    33   ar
    33    33    34   ar
    34    34    35   ar
    35    35    38    1
    36    38    39    1
    37    35    26   ar
    38    33    28   ar
    39     6     1    1
    40     8     1    1
    41    17    12   ar
    42    22    15    1
    43     9    10    1
    44    18    23    1
@<TRIPOS>MOLECULE
*****
 39 44 0 0 0
SMALL
GASTEIGER

@<TRIPOS>ATOM
      1 C         144.1598  142.9155  164.2058 C.3     1  UNL1        0.0932
      2 C         144.4471  143.9315  163.1404 C.3     1  UNL1        0.0286
      3 C         143.4279  144.9815  162.8110 C.3     1  UNL1        0.0193
      4 C         142.1214  145.0157  163.5470 C.3     1  UNL1        0.0700
      5 C         141.8340  143.9996  164.6125 C.3     1  UNL1        0.0193
      6 C         142.8532  142.9496  164.9419 C.3     1  UNL1        0.0286
      7 C         142.6488  144.4213  163.7625 C.3     1  UNL1        0.1562
      8 O         143.5704  143.4717  164.0604 O.3     1  UNL1       -0.3572
      9 N         141.1021  146.0657  163.2175 N.3     1  UNL1       -0.2926
     10 H         141.6173  146.9212  163.0097 H       1  UNL1        0.1236
     11 C         140.1437  145.8512  162.0838 C.3     1  UNL1        0.1152
     12 C         139.4131  144.5474  161.9559 C.ar    1  UNL1        0.0765
     13 C         138.4030  144.1491  162.9907 C.ar    1  UNL1        0.0193
     14 C         137.6723  142.8453  162.8628 C.ar    1  UNL1        0.0411
     15 C         137.9518  141.9399  161.7001 C.ar    1  UNL1        0.1708
     16 C         138.9619  142.3382  160.6653 C.ar    1  UNL1        0.1682
     17 N         139.6926  143.6420  160.7932 N.ar    1  UNL1       -0.2304
     18 N         139.2415  141.4327  159.5024 N.am    1  UNL1       -0.2639
     19 C         138.5108  140.1290  159.3745 C.2     1  UNL1        0.2718
     20 O         138.7903  139.2235  158.2118 O.2     1  UNL1       -0.2707
     21 C         137.5006  139.7307  160.4095 C.3     1  UNL1        0.2898
     22 O         137.2212  140.6361  161.5722 O.3     1  UNL1       -0.4628
     23 H         139.9045  141.6942  158.8232 H       1  UNL1        0.1565
     24 C         145.1790  141.8654  164.5353 C.3     1  UNL1        0.0319
     25 C         145.2743  140.6241  163.6987 C.3     1  UNL1        0.0304
     26 C         142.4586  138.4217  159.6402 C.ar    1  UNL1        0.1931
     27 C         141.8523  137.8887  160.9044 C.ar    1  UNL1        0.0623
     28 C         142.4047  138.3060  162.2351 C.ar    1  UNL1        0.1019
     29 N         141.7984  137.7730  163.4993 N.ar    1  UNL1       -0.2422
     30 C         142.3508  138.1903  164.8300 C.ar    1  UNL1        0.0986
     31 C         143.5094  139.1407  164.8965 C.ar    1  UNL1        0.0179
     32 C         144.1156  139.6737  163.6323 C.ar    1  UNL1       -0.0013
     33 C         143.5633  139.2564  162.3016 C.ar    1  UNL1        0.0982
     34 N         144.1696  139.7894  161.0373 N.ar    1  UNL1       -0.2079
     35 C         143.6172  139.3721  159.7066 C.ar    1  UNL1        0.2602
     36 C         142.6338  136.9875  157.4809 C.3     1  UNL1        0.2527
     37 O         141.9062  138.0044  158.3094 O.3     1  UNL1       -0.4667
     38 O         144.2235  139.9051  158.4423 O.3     1  UNL1       -0.4541
     39 C         143.5511  141.0226  157.7012 C.3     1  UNL1        0.2543
@<TRIPOS>BOND
     1    36    37    1
     2    37    26    1
     3    26    27   ar
     4    27    28   ar
     5    28    29   ar
     6    29    30   ar
     7    30    31   ar
     8    31    32   ar
     9    32    25    1
    10    25    24    1
    11    24     1    1
    12     1     2    1
    13     2     3    1
    14     3     4    1
    15     4     9    1
    16     9    11    1
    17    11    12    1
    18    12    13   ar
    19    13    14   ar
    20    14    15   ar
    21    15    16   ar
    22    16    17   ar
    23    16    18    1
    24    18    19   am
    25    19    20    2
    26    19    21    1
    27    21    22    1
    28     4     5    1
    29     5     6    1
    30     4     7    1
    31     7     8    1
    32    32    33   ar
    33    33    34   ar
    34    34    35   ar
    35    35    38    1
    36    38    39    1
    37    35    26   ar
    38    33    28   ar
    39     6     1    1
    40     8     1    1
    41    17    12   ar
    42    22    15    1
    43     9    10    1
    44    18    23    1
