@<TRIPOS>MOLECULE
*****
 34 39 0 0 0
SMALL
GASTEIGER

@<TRIPOS>ATOM
      1 C         142.8153  142.5173  167.5074 C.2     1  UNL1        0.2507
      2 O         144.1820  142.6371  168.1137 O.2     1  UNL1       -0.2698
      3 N         142.5877  142.9303  166.0834 N.am    1  UNL1       -0.2703
      4 C         141.2834  142.8683  165.3451 C.3     1  UNL1        0.1307
      5 C         141.5141  143.3775  163.9533 C.3     1  UNL1        0.2004
      6 F         140.0673  143.0008  164.0752 F       1  UNL1       -0.2336
      7 C         140.8505  143.6539  162.6367 C.3     1  UNL1        0.1321
      8 N         141.8872  144.2014  161.7010 N.pl3   1  UNL1       -0.2579
      9 C         143.1915  144.2634  162.4393 C.3     1  UNL1        0.1321
     10 C         142.9608  143.7542  163.8313 C.3     1  UNL1        0.2004
     11 F         144.4076  144.1310  163.7093 F       1  UNL1       -0.2336
     12 C         143.6243  143.4779  165.1478 C.3     1  UNL1        0.1307
     13 C         141.6596  144.6144  160.2771 C.ar    1  UNL1        0.2925
     14 N         140.5248  145.4564  159.7739 N.ar    1  UNL1       -0.1946
     15 C         140.6907  145.6203  158.2921 C.ar    1  UNL1        0.1210
     16 C         139.8749  146.3483  157.2653 C.ar    1  UNL1        0.0337
     17 C         140.2965  146.3357  155.8258 C.ar    1  UNL1        0.0594
     18 CL        139.4807  147.0637  154.7989 Cl      1  UNL1       -0.0822
     19 C         141.5339  145.5950  155.4132 C.ar    1  UNL1        0.0146
     20 C         142.3497  144.8670  156.4400 C.ar    1  UNL1        0.0400
     21 C         141.9281  144.8797  157.8795 C.ar    1  UNL1        0.1661
     22 O         142.5269  144.2580  159.1063 O.2     1  UNL1       -0.4237
     23 C         139.1329  143.2377  171.1021 C.3     1  UNL1        0.0310
     24 C         139.8350  142.3448  170.1223 C.ar    1  UNL1       -0.0216
     25 C         139.3978  140.9191  169.9603 C.ar    1  UNL1       -0.0026
     26 C         140.0998  140.0261  168.9806 C.ar    1  UNL1        0.0207
     27 C         141.2390  140.5589  168.1629 C.ar    1  UNL1        0.1072
     28 C         141.6761  141.9846  168.3250 C.ar    1  UNL1        0.0726
     29 C         140.9741  142.8775  169.3047 C.ar    1  UNL1        0.0018
     30 N         141.9410  139.6659  167.1832 N.ar    1  UNL1       -0.1477
     31 N         143.2113  138.9086  167.4338 N.ar    1  UNL1       -0.1447
     32 C         143.5514  138.1481  166.1864 C.ar    1  UNL1        0.1446
     33 C         142.4911  138.4354  165.1649 C.ar    1  UNL1        0.1446
     34 N         141.4959  139.3734  165.7810 N.ar    1  UNL1       -0.1447
@<TRIPOS>BOND
     1    23    24    1
     2    24    25   ar
     3    25    26   ar
     4    26    27   ar
     5    27    30    1
     6    30    31   ar
     7    31    32   ar
     8    32    33   ar
     9    33    34   ar
    10    27    28   ar
    11    28     1    1
    12     1     2    2
    13     1     3   am
    14     3     4    1
    15     4     5    1
    16     5     6    1
    17     5     7    1
    18     7     8    1
    19     8    13    1
    20    13    14   ar
    21    14    15   ar
    22    15    16   ar
    23    16    17   ar
    24    17    18    1
    25    17    19   ar
    26    19    20   ar
    27    20    21   ar
    28    21    22   ar
    29     8     9    1
    30     9    10    1
    31    10    11    1
    32    10    12    1
    33    28    29   ar
    34    29    24   ar
    35    34    30   ar
    36    12     3    1
    37    10     5    1
    38    22    13   ar
    39    21    15   ar
@<TRIPOS>MOLECULE
*****
 34 39 0 0 0
SMALL
GASTEIGER

@<TRIPOS>ATOM
      1 C         140.1359  141.1312  166.4399 C.2     1  UNL1        0.2507
      2 O         139.3091  139.8984  166.6554 O.2     1  UNL1       -0.2698
      3 N         140.2257  141.7448  165.0740 N.am    1  UNL1       -0.2703
      4 C         141.0089  142.9705  164.7078 C.3     1  UNL1        0.1307
      5 C         140.8153  143.2236  163.2422 C.3     1  UNL1        0.2004
      6 F         141.7181  144.2929  163.7819 F       1  UNL1       -0.2336
      7 C         141.1796  144.1376  162.1099 C.3     1  UNL1        0.1321
      8 N         140.5019  143.6331  160.8705 N.pl3   1  UNL1       -0.2579
      9 C         139.7188  142.4073  161.2367 C.3     1  UNL1        0.1321
     10 C         139.9124  142.1542  162.7025 C.3     1  UNL1        0.2004
     11 F         139.0095  141.0849  162.1627 F       1  UNL1       -0.2336
     12 C         139.5480  141.2403  163.8346 C.3     1  UNL1        0.1307
     13 C         140.5917  144.2467  159.5046 C.ar    1  UNL1        0.2925
     14 N         139.8254  145.4430  159.0234 N.ar    1  UNL1       -0.1946
     15 C         140.2236  145.7073  157.6016 C.ar    1  UNL1        0.1210
     16 C         139.7952  146.7551  156.6175 C.ar    1  UNL1        0.0337
     17 C         140.3791  146.7700  155.2359 C.ar    1  UNL1        0.0594
     18 CL        139.9506  147.8178  154.2518 Cl      1  UNL1       -0.0822
     19 C         141.3915  145.7370  154.8385 C.ar    1  UNL1        0.0146
     20 C         141.8200  144.6892  155.8225 C.ar    1  UNL1        0.0400
     21 C         141.2361  144.6744  157.2041 C.ar    1  UNL1        0.1661
     22 O         141.4635  143.7716  158.3803 O.2     1  UNL1       -0.4237
     23 C         140.3394  144.5816  170.3198 C.3     1  UNL1        0.0310
     24 C         140.9747  143.4757  169.5302 C.ar    1  UNL1       -0.0216
     25 C         142.3469  142.9891  169.8909 C.ar    1  UNL1       -0.0026
     26 C         142.9822  141.8833  169.1013 C.ar    1  UNL1        0.0207
     27 C         142.2452  141.2639  167.9509 C.ar    1  UNL1        0.1072
     28 C         140.8729  141.7505  167.5902 C.ar    1  UNL1        0.0726
     29 C         140.2377  142.8564  168.3799 C.ar    1  UNL1        0.0018
     30 N         142.8805  140.1581  167.1613 N.ar    1  UNL1       -0.1477
     31 N         143.3225  140.2380  165.7301 N.ar    1  UNL1       -0.1447
     32 C         143.9005  138.9075  165.3485 C.ar    1  UNL1        0.1446
     33 C         143.8157  138.0053  166.5439 C.ar    1  UNL1        0.1446
     34 N         143.1853  138.7782  167.6643 N.ar    1  UNL1       -0.1447
@<TRIPOS>BOND
     1    23    24    1
     2    24    25   ar
     3    25    26   ar
     4    26    27   ar
     5    27    30    1
     6    30    31   ar
     7    31    32   ar
     8    32    33   ar
     9    33    34   ar
    10    27    28   ar
    11    28     1    1
    12     1     2    2
    13     1     3   am
    14     3     4    1
    15     4     5    1
    16     5     6    1
    17     5     7    1
    18     7     8    1
    19     8    13    1
    20    13    14   ar
    21    14    15   ar
    22    15    16   ar
    23    16    17   ar
    24    17    18    1
    25    17    19   ar
    26    19    20   ar
    27    20    21   ar
    28    21    22   ar
    29     8     9    1
    30     9    10    1
    31    10    11    1
    32    10    12    1
    33    28    29   ar
    34    29    24   ar
    35    34    30   ar
    36    12     3    1
    37    10     5    1
    38    22    13   ar
    39    21    15   ar
@<TRIPOS>MOLECULE
*****
 34 39 0 0 0
SMALL
GASTEIGER

@<TRIPOS>ATOM
      1 C         141.0424  142.3977  166.0262 C.2     1  UNL1        0.2507
      2 O         139.7702  143.1788  166.1720 O.2     1  UNL1       -0.2698
      3 N         141.6823  142.2515  164.6774 N.am    1  UNL1       -0.2703
      4 C         142.9480  141.5041  164.3784 C.3     1  UNL1        0.1307
      5 C         143.2168  141.6177  162.9071 C.3     1  UNL1        0.2004
      6 F         144.3164  140.8001  163.5175 F       1  UNL1       -0.2336
      7 C         144.1652  141.2259  161.8130 C.3     1  UNL1        0.1321
      8 N         143.6517  141.8014  160.5264 N.pl3   1  UNL1       -0.2579
      9 C         142.3860  142.5487  160.8254 C.3     1  UNL1        0.1321
     10 C         142.1172  142.4352  162.2968 C.3     1  UNL1        0.2004
     11 F         141.0176  143.2527  161.6864 F       1  UNL1       -0.2336
     12 C         141.1689  142.8269  163.3908 C.3     1  UNL1        0.1307
     13 C         144.2917  141.6551  159.1777 C.ar    1  UNL1        0.2925
     14 N         145.3569  142.5432  158.6062 N.ar    1  UNL1       -0.1946
     15 C         145.7023  142.0320  157.2389 C.ar    1  UNL1        0.1210
     16 C         146.6824  142.5074  156.2077 C.ar    1  UNL1        0.0337
     17 C         146.8107  141.7787  154.9029 C.ar    1  UNL1        0.0594
     18 CL        147.7908  142.2541  153.8716 Cl      1  UNL1       -0.0822
     19 C         145.9588  140.5748  154.6293 C.ar    1  UNL1        0.0146
     20 C         144.9788  140.0994  155.6605 C.ar    1  UNL1        0.0400
     21 C         144.8505  140.8281  156.9653 C.ar    1  UNL1        0.1661
     22 O         143.9787  140.5951  158.1636 O.2     1  UNL1       -0.4237
     23 C         144.3931  142.6167  169.9917 C.3     1  UNL1        0.0310
     24 C         143.3500  141.8724  169.2119 C.ar    1  UNL1       -0.0216
     25 C         142.9393  140.4932  169.6351 C.ar    1  UNL1       -0.0026
     26 C         141.8963  139.7488  168.8553 C.ar    1  UNL1        0.0207
     27 C         141.2640  140.3837  167.6523 C.ar    1  UNL1        0.1072
     28 C         141.6747  141.7629  167.2291 C.ar    1  UNL1        0.0726
     29 C         142.7177  142.5072  168.0089 C.ar    1  UNL1        0.0018
     30 N         140.2210  139.6393  166.8726 N.ar    1  UNL1       -0.1477
     31 N         138.7731  139.5054  167.2410 N.ar    1  UNL1       -0.1447
     32 C         138.1000  138.6815  166.1836 C.ar    1  UNL1        0.1446
     33 C         139.1319  138.3062  165.1616 C.ar    1  UNL1        0.1446
     34 N         140.4427  138.8982  165.5874 N.ar    1  UNL1       -0.1447
@<TRIPOS>BOND
     1    23    24    1
     2    24    25   ar
     3    25    26   ar
     4    26    27   ar
     5    27    30    1
     6    30    31   ar
     7    31    32   ar
     8    32    33   ar
     9    33    34   ar
    10    27    28   ar
    11    28     1    1
    12     1     2    2
    13     1     3   am
    14     3     4    1
    15     4     5    1
    16     5     6    1
    17     5     7    1
    18     7     8    1
    19     8    13    1
    20    13    14   ar
    21    14    15   ar
    22    15    16   ar
    23    16    17   ar
    24    17    18    1
    25    17    19   ar
    26    19    20   ar
    27    20    21   ar
    28    21    22   ar
    29     8     9    1
    30     9    10    1
    31    10    11    1
    32    10    12    1
    33    28    29   ar
    34    29    24   ar
    35    34    30   ar
    36    12     3    1
    37    10     5    1
    38    22    13   ar
    39    21    15   ar
@<TRIPOS>MOLECULE
*****
 34 39 0 0 0
SMALL
GASTEIGER

@<TRIPOS>ATOM
      1 C         143.3477  142.8451  163.7432 C.2     1  UNL1        0.2507
      2 O         144.3185  143.9755  163.5709 O.2     1  UNL1       -0.2698
      3 N         143.1713  141.8346  162.6487 N.am    1  UNL1       -0.2703
      4 C         142.2431  140.6566  162.6776 C.3     1  UNL1        0.1307
      5 C         142.3903  139.9187  161.3801 C.3     1  UNL1        0.2004
      6 F         141.3711  139.1968  162.2109 F       1  UNL1       -0.2336
      7 C         141.9076  138.7345  160.5959 C.3     1  UNL1        0.1321
      8 N         142.6283  138.7245  159.2805 N.pl3   1  UNL1       -0.2579
      9 C         143.5565  139.9025  159.2517 C.3     1  UNL1        0.1321
     10 C         143.4094  140.6405  160.5493 C.3     1  UNL1        0.2004
     11 F         144.4285  141.3624  159.7184 F       1  UNL1       -0.2336
     12 C         143.8921  141.8246  161.3333 C.3     1  UNL1        0.1307
     13 C         142.4519  137.7140  158.1861 C.ar    1  UNL1        0.2925
     14 N         143.2665  136.4689  157.9960 N.ar    1  UNL1       -0.1946
     15 C         142.7479  135.7565  156.7821 C.ar    1  UNL1        0.1210
     16 C         143.1627  134.4790  156.1144 C.ar    1  UNL1        0.0337
     17 C         142.4424  134.0063  154.8865 C.ar    1  UNL1        0.0594
     18 CL        142.8571  132.7287  154.2188 Cl      1  UNL1       -0.0822
     19 C         141.3074  134.8112  154.3263 C.ar    1  UNL1        0.0146
     20 C         140.8926  136.0888  154.9940 C.ar    1  UNL1        0.0400
     21 C         141.6129  136.5614  156.2218 C.ar    1  UNL1        0.1661
     22 O         141.4300  137.7712  157.0896 O.2     1  UNL1       -0.4237
     23 C         143.0015  141.3779  168.7159 C.3     1  UNL1        0.0310
     24 C         142.3802  141.9916  167.4962 C.ar    1  UNL1       -0.0216
     25 C         140.9646  142.4854  167.5433 C.ar    1  UNL1       -0.0026
     26 C         140.3434  143.0990  166.3238 C.ar    1  UNL1        0.0207
     27 C         141.1377  143.2190  165.0570 C.ar    1  UNL1        0.1072
     28 C         142.5533  142.7252  165.0099 C.ar    1  UNL1        0.0726
     29 C         143.1746  142.1115  166.2295 C.ar    1  UNL1        0.0018
     30 N         140.5165  143.8326  163.8374 N.ar    1  UNL1       -0.1477
     31 N         139.5906  143.1447  162.8785 N.ar    1  UNL1       -0.1447
     32 C         139.2139  144.1288  161.8110 C.ar    1  UNL1        0.1446
     33 C         139.9070  145.4251  162.1102 C.ar    1  UNL1        0.1446
     34 N         140.7120  145.2420  163.3626 N.ar    1  UNL1       -0.1447
@<TRIPOS>BOND
     1    23    24    1
     2    24    25   ar
     3    25    26   ar
     4    26    27   ar
     5    27    30    1
     6    30    31   ar
     7    31    32   ar
     8    32    33   ar
     9    33    34   ar
    10    27    28   ar
    11    28     1    1
    12     1     2    2
    13     1     3   am
    14     3     4    1
    15     4     5    1
    16     5     6    1
    17     5     7    1
    18     7     8    1
    19     8    13    1
    20    13    14   ar
    21    14    15   ar
    22    15    16   ar
    23    16    17   ar
    24    17    18    1
    25    17    19   ar
    26    19    20   ar
    27    20    21   ar
    28    21    22   ar
    29     8     9    1
    30     9    10    1
    31    10    11    1
    32    10    12    1
    33    28    29   ar
    34    29    24   ar
    35    34    30   ar
    36    12     3    1
    37    10     5    1
    38    22    13   ar
    39    21    15   ar
@<TRIPOS>MOLECULE
*****
 34 39 0 0 0
SMALL
GASTEIGER

@<TRIPOS>ATOM
      1 C         141.2198  139.7203  165.5968 C.2     1  UNL1        0.2507
      2 O         142.2257  138.6138  165.7136 O.2     1  UNL1       -0.2698
      3 N         140.5931  140.0271  164.2689 N.am    1  UNL1       -0.2703
      4 C         139.5778  141.0978  163.9994 C.3     1  UNL1        0.1307
      5 C         139.2290  141.0495  162.5415 C.3     1  UNL1        0.2004
      6 F         138.4292  142.1501  163.1732 F       1  UNL1       -0.2336
      7 C         138.3859  141.6814  161.4738 C.3     1  UNL1        0.1321
      8 N         138.6646  140.9713  160.1822 N.pl3   1  UNL1       -0.2579
      9 C         139.6799  139.9006  160.4517 C.3     1  UNL1        0.1321
     10 C         140.0288  139.9489  161.9097 C.3     1  UNL1        0.2004
     11 F         140.8285  138.8483  161.2780 F       1  UNL1       -0.2336
     12 C         140.8718  139.3171  162.9773 C.3     1  UNL1        0.1307
     13 C         138.0380  141.2781  158.8543 C.ar    1  UNL1        0.2925
     14 N         137.2649  140.3168  158.0010 N.ar    1  UNL1       -0.1946
     15 C         136.8235  141.0446  156.7660 C.ar    1  UNL1        0.1210
     16 C         136.0307  140.6047  155.5710 C.ar    1  UNL1        0.0337
     17 C         135.7382  141.5760  154.4661 C.ar    1  UNL1        0.0594
     18 CL        134.9454  141.1361  153.2711 Cl      1  UNL1       -0.0822
     19 C         136.2385  142.9872  154.5561 C.ar    1  UNL1        0.0146
     20 C         137.0313  143.4272  155.7510 C.ar    1  UNL1        0.0400
     21 C         137.3238  142.4559  156.8559 C.ar    1  UNL1        0.1661
     22 O         138.0744  142.6002  158.1466 O.2     1  UNL1       -0.4237
     23 C         138.5935  140.1580  170.0590 C.3     1  UNL1        0.0310
     24 C         139.5274  140.7389  169.0389 C.ar    1  UNL1       -0.0216
     25 C         140.0819  142.1195  169.2298 C.ar    1  UNL1       -0.0026
     26 C         141.0156  142.7004  168.2098 C.ar    1  UNL1        0.0207
     27 C         141.3950  141.9006  166.9987 C.ar    1  UNL1        0.1072
     28 C         140.8405  140.5200  166.8078 C.ar    1  UNL1        0.0726
     29 C         139.9067  139.9391  167.8279 C.ar    1  UNL1        0.0018
     30 N         142.3288  142.4815  165.9786 N.ar    1  UNL1       -0.1477
     31 N         141.9632  143.4674  164.9089 N.ar    1  UNL1       -0.1447
     32 C         143.2005  143.7738  164.1183 C.ar    1  UNL1        0.1446
     33 C         144.3309  142.9771  164.6995 C.ar    1  UNL1        0.1446
     34 N         143.7921  142.1785  165.8492 N.ar    1  UNL1       -0.1447
@<TRIPOS>BOND
     1    23    24    1
     2    24    25   ar
     3    25    26   ar
     4    26    27   ar
     5    27    30    1
     6    30    31   ar
     7    31    32   ar
     8    32    33   ar
     9    33    34   ar
    10    27    28   ar
    11    28     1    1
    12     1     2    2
    13     1     3   am
    14     3     4    1
    15     4     5    1
    16     5     6    1
    17     5     7    1
    18     7     8    1
    19     8    13    1
    20    13    14   ar
    21    14    15   ar
    22    15    16   ar
    23    16    17   ar
    24    17    18    1
    25    17    19   ar
    26    19    20   ar
    27    20    21   ar
    28    21    22   ar
    29     8     9    1
    30     9    10    1
    31    10    11    1
    32    10    12    1
    33    28    29   ar
    34    29    24   ar
    35    34    30   ar
    36    12     3    1
    37    10     5    1
    38    22    13   ar
    39    21    15   ar
@<TRIPOS>MOLECULE
*****
 34 39 0 0 0
SMALL
GASTEIGER

@<TRIPOS>ATOM
      1 C         142.3107  143.4315  162.1562 C.2     1  UNL1        0.2507
      2 O         142.9947  144.6953  161.7264 O.2     1  UNL1       -0.2698
      3 N         142.3156  142.2322  161.2552 N.am    1  UNL1       -0.2703
      4 C         141.6772  140.9068  161.5479 C.3     1  UNL1        0.1307
      5 C         141.9268  140.0034  160.3769 C.3     1  UNL1        0.2004
      6 F         141.1341  139.2364  161.3934 F       1  UNL1       -0.2336
      7 C         141.6866  138.6258  159.8341 C.3     1  UNL1        0.1321
      8 N         142.3308  138.5414  158.4821 N.pl3   1  UNL1       -0.2579
      9 C         142.9692  139.8669  158.1894 C.3     1  UNL1        0.1321
     10 C         142.7195  140.7704  159.3604 C.3     1  UNL1        0.2004
     11 F         143.5123  141.5374  158.3439 F       1  UNL1       -0.2336
     12 C         142.9598  142.1478  159.9032 C.3     1  UNL1        0.1307
     13 C         142.3357  137.3422  157.5811 C.ar    1  UNL1        0.2925
     14 N         141.3293  137.0394  156.5109 N.ar    1  UNL1       -0.1946
     15 C         141.7195  135.7453  155.8604 C.ar    1  UNL1        0.1210
     16 C         141.0999  134.9552  154.7460 C.ar    1  UNL1        0.0337
     17 C         141.7280  133.6682  154.2998 C.ar    1  UNL1        0.0594
     18 CL        141.1085  132.8781  153.1854 Cl      1  UNL1       -0.0822
     19 C         142.9756  133.1713  154.9681 C.ar    1  UNL1        0.0146
     20 C         143.5951  133.9613  156.0825 C.ar    1  UNL1        0.0400
     21 C         142.9671  135.2483  156.5287 C.ar    1  UNL1        0.1661
     22 O         143.3479  136.2353  157.5921 O.2     1  UNL1       -0.4237
     23 C         138.3430  144.7573  165.2385 C.3     1  UNL1        0.0310
     24 C         139.6379  144.0297  165.0282 C.ar    1  UNL1       -0.0216
     25 C         140.2437  143.2376  166.1487 C.ar    1  UNL1       -0.0026
     26 C         141.5385  142.5101  165.9384 C.ar    1  UNL1        0.0207
     27 C         142.2275  142.5747  164.6075 C.ar    1  UNL1        0.1072
     28 C         141.6217  143.3668  163.4870 C.ar    1  UNL1        0.0726
     29 C         140.3269  144.0944  163.6974 C.ar    1  UNL1        0.0018
     30 N         143.5223  141.8473  164.3972 N.ar    1  UNL1       -0.1477
     31 N         144.8503  142.4786  164.1010 N.ar    1  UNL1       -0.1447
     32 C         145.8652  141.3822  163.9669 C.ar    1  UNL1        0.1446
     33 C         145.1644  140.0732  164.1803 C.ar    1  UNL1        0.1446
     34 N         143.7164  140.3607  164.4463 N.ar    1  UNL1       -0.1447
@<TRIPOS>BOND
     1    23    24    1
     2    24    25   ar
     3    25    26   ar
     4    26    27   ar
     5    27    30    1
     6    30    31   ar
     7    31    32   ar
     8    32    33   ar
     9    33    34   ar
    10    27    28   ar
    11    28     1    1
    12     1     2    2
    13     1     3   am
    14     3     4    1
    15     4     5    1
    16     5     6    1
    17     5     7    1
    18     7     8    1
    19     8    13    1
    20    13    14   ar
    21    14    15   ar
    22    15    16   ar
    23    16    17   ar
    24    17    18    1
    25    17    19   ar
    26    19    20   ar
    27    20    21   ar
    28    21    22   ar
    29     8     9    1
    30     9    10    1
    31    10    11    1
    32    10    12    1
    33    28    29   ar
    34    29    24   ar
    35    34    30   ar
    36    12     3    1
    37    10     5    1
    38    22    13   ar
    39    21    15   ar
@<TRIPOS>MOLECULE
*****
 34 39 0 0 0
SMALL
GASTEIGER

@<TRIPOS>ATOM
      1 C         142.2935  140.4798  166.6481 C.2     1  UNL1        0.2507
      2 O         142.8838  139.1037  166.7359 O.2     1  UNL1       -0.2698
      3 N         142.1486  141.1501  165.3141 N.am    1  UNL1       -0.2703
      4 C         141.5797  142.5165  165.0710 C.3     1  UNL1        0.1307
      5 C         141.6266  142.7825  163.5956 C.3     1  UNL1        0.2004
      6 F         141.0287  143.9846  164.2645 F       1  UNL1       -0.2336
      7 C         141.3040  143.7914  162.5335 C.3     1  UNL1        0.1321
      8 N         141.7026  143.2128  161.2082 N.pl3   1  UNL1       -0.2579
      9 C         142.2715  141.8464  161.4512 C.3     1  UNL1        0.1321
     10 C         142.2246  141.5804  162.9267 C.3     1  UNL1        0.2004
     11 F         142.8225  140.3783  162.2578 F       1  UNL1       -0.2336
     12 C         142.5472  140.5715  163.9888 C.3     1  UNL1        0.1307
     13 C         141.5577  143.8831  159.8741 C.ar    1  UNL1        0.2925
     14 N         140.5585  144.9461  159.5254 N.ar    1  UNL1       -0.1946
     15 C         140.7698  145.3280  158.0903 C.ar    1  UNL1        0.1210
     16 C         140.0794  146.3219  157.2040 C.ar    1  UNL1        0.0337
     17 C         140.5188  146.4889  155.7796 C.ar    1  UNL1        0.0594
     18 CL        139.8283  147.4828  154.8933 Cl      1  UNL1       -0.0822
     19 C         141.6485  145.6619  155.2414 C.ar    1  UNL1        0.0146
     20 C         142.3389  144.6680  156.1276 C.ar    1  UNL1        0.0400
     21 C         141.8995  144.5010  157.5521 C.ar    1  UNL1        0.1661
     22 O         142.3865  143.6080  158.6545 O.2     1  UNL1       -0.4237
     23 C         143.3728  143.4840  170.7482 C.3     1  UNL1        0.0310
     24 C         142.3878  142.6878  169.9445 C.ar    1  UNL1       -0.0216
     25 C         140.9574  142.5976  170.3871 C.ar    1  UNL1       -0.0026
     26 C         139.9725  141.8014  169.5835 C.ar    1  UNL1        0.0207
     27 C         140.4178  141.0954  168.3371 C.ar    1  UNL1        0.1072
     28 C         141.8482  141.1857  167.8944 C.ar    1  UNL1        0.0726
     29 C         142.8332  141.9819  168.6982 C.ar    1  UNL1        0.0018
     30 N         139.4328  140.2993  167.5335 N.ar    1  UNL1       -0.1477
     31 N         139.0770  140.5306  166.0947 N.ar    1  UNL1       -0.1447
     32 C         138.0550  139.5063  165.6995 C.ar    1  UNL1        0.1446
     33 C         137.7791  138.6419  166.8940 C.ar    1  UNL1        0.1446
     34 N         138.6307  139.1320  168.0274 N.ar    1  UNL1       -0.1447
@<TRIPOS>BOND
     1    23    24    1
     2    24    25   ar
     3    25    26   ar
     4    26    27   ar
     5    27    30    1
     6    30    31   ar
     7    31    32   ar
     8    32    33   ar
     9    33    34   ar
    10    27    28   ar
    11    28     1    1
    12     1     2    2
    13     1     3   am
    14     3     4    1
    15     4     5    1
    16     5     6    1
    17     5     7    1
    18     7     8    1
    19     8    13    1
    20    13    14   ar
    21    14    15   ar
    22    15    16   ar
    23    16    17   ar
    24    17    18    1
    25    17    19   ar
    26    19    20   ar
    27    20    21   ar
    28    21    22   ar
    29     8     9    1
    30     9    10    1
    31    10    11    1
    32    10    12    1
    33    28    29   ar
    34    29    24   ar
    35    34    30   ar
    36    12     3    1
    37    10     5    1
    38    22    13   ar
    39    21    15   ar
@<TRIPOS>MOLECULE
*****
 34 39 0 0 0
SMALL
GASTEIGER

@<TRIPOS>ATOM
      1 C         142.6696  141.1263  165.2313 C.2     1  UNL1        0.2507
      2 O         143.9874  140.4246  165.3759 O.2     1  UNL1       -0.2698
      3 N         142.3467  141.8623  163.9649 N.am    1  UNL1       -0.2703
      4 C         141.0766  142.6066  163.6770 C.3     1  UNL1        0.1307
      5 C         141.1822  143.1876  162.2982 C.3     1  UNL1        0.2004
      6 F         139.8468  143.5728  162.8625 F       1  UNL1       -0.2336
      7 C         140.4625  144.0067  161.2681 C.3     1  UNL1        0.1321
      8 N         141.3530  144.1278  160.0671 N.pl3   1  UNL1       -0.2579
      9 C         142.6231  143.3835  160.3550 C.3     1  UNL1        0.1321
     10 C         142.5176  142.8024  161.7339 C.3     1  UNL1        0.2004
     11 F         143.8529  142.4172  161.1696 F       1  UNL1       -0.2336
     12 C         143.2372  141.9834  162.7639 C.3     1  UNL1        0.1307
     13 C         141.0302  144.8638  158.8006 C.ar    1  UNL1        0.2925
     14 N         141.7153  144.6858  157.4782 N.ar    1  UNL1       -0.1946
     15 C         141.0741  145.6192  156.4945 C.ar    1  UNL1        0.1210
     16 C         141.3352  145.8792  155.0405 C.ar    1  UNL1        0.0337
     17 C         140.5149  146.8941  154.3010 C.ar    1  UNL1        0.0594
     18 CL        140.7760  147.1541  152.8469 Cl      1  UNL1       -0.0822
     19 C         139.4333  147.6489  155.0154 C.ar    1  UNL1        0.0146
     20 C         139.1722  147.3889  156.4694 C.ar    1  UNL1        0.0400
     21 C         139.9925  146.3740  157.2090 C.ar    1  UNL1        0.1661
     22 O         139.9654  145.9072  158.6342 O.2     1  UNL1       -0.4237
     23 C         140.7953  143.1240  169.6468 C.3     1  UNL1        0.0310
     24 C         140.7375  142.0907  168.5610 C.ar    1  UNL1       -0.0216
     25 C         139.6846  141.0229  168.5972 C.ar    1  UNL1       -0.0026
     26 C         139.6267  139.9896  167.5115 C.ar    1  UNL1        0.0207
     27 C         140.6217  140.0240  166.3895 C.ar    1  UNL1        0.1072
     28 C         141.6746  141.0918  166.3533 C.ar    1  UNL1        0.0726
     29 C         141.7325  142.1251  167.4391 C.ar    1  UNL1        0.0018
     30 N         140.5638  138.9907  165.3037 N.ar    1  UNL1       -0.1477
     31 N         141.5508  137.8819  165.0883 N.ar    1  UNL1       -0.1447
     32 C         141.1058  137.0906  163.8942 C.ar    1  UNL1        0.1446
     33 C         139.8437  137.7105  163.3717 C.ar    1  UNL1        0.1446
     34 N         139.5088  138.8847  164.2428 N.ar    1  UNL1       -0.1447
@<TRIPOS>BOND
     1    23    24    1
     2    24    25   ar
     3    25    26   ar
     4    26    27   ar
     5    27    30    1
     6    30    31   ar
     7    31    32   ar
     8    32    33   ar
     9    33    34   ar
    10    27    28   ar
    11    28     1    1
    12     1     2    2
    13     1     3   am
    14     3     4    1
    15     4     5    1
    16     5     6    1
    17     5     7    1
    18     7     8    1
    19     8    13    1
    20    13    14   ar
    21    14    15   ar
    22    15    16   ar
    23    16    17   ar
    24    17    18    1
    25    17    19   ar
    26    19    20   ar
    27    20    21   ar
    28    21    22   ar
    29     8     9    1
    30     9    10    1
    31    10    11    1
    32    10    12    1
    33    28    29   ar
    34    29    24   ar
    35    34    30   ar
    36    12     3    1
    37    10     5    1
    38    22    13   ar
    39    21    15   ar
@<TRIPOS>MOLECULE
*****
 34 39 0 0 0
SMALL
GASTEIGER

@<TRIPOS>ATOM
      1 C         142.7538  141.5522  165.6088 C.2     1  UNL1        0.2507
      2 O         143.5390  142.8198  165.7716 O.2     1  UNL1       -0.2698
      3 N         142.7264  140.8520  164.2826 N.am    1  UNL1       -0.2703
      4 C         141.9897  139.5832  163.9704 C.3     1  UNL1        0.1307
      5 C         142.2388  139.2447  162.5306 C.3     1  UNL1        0.2004
      6 F         141.3481  138.1852  163.1084 F       1  UNL1       -0.2336
      7 C         141.9375  138.2514  161.4478 C.3     1  UNL1        0.1321
      8 N         142.6420  138.6970  160.2007 N.pl3   1  UNL1       -0.2579
      9 C         143.3788  139.9658  160.5129 C.3     1  UNL1        0.1321
     10 C         143.1296  140.3043  161.9528 C.3     1  UNL1        0.2004
     11 F         144.0204  141.3639  161.3750 F       1  UNL1       -0.2336
     12 C         143.4309  141.2976  163.0355 C.3     1  UNL1        0.1307
     13 C         142.6146  137.9968  158.8745 C.ar    1  UNL1        0.2925
     14 N         141.9943  138.5210  157.6134 N.ar    1  UNL1       -0.1946
     15 C         142.1990  137.4977  156.5359 C.ar    1  UNL1        0.1210
     16 C         141.8018  137.4697  155.0898 C.ar    1  UNL1        0.0337
     17 C         142.1515  136.2850  154.2388 C.ar    1  UNL1        0.0594
     18 CL        141.7543  136.2569  152.7926 Cl      1  UNL1       -0.0822
     19 C         142.8984  135.1283  154.8340 C.ar    1  UNL1        0.0146
     20 C         143.2955  135.1563  156.2802 C.ar    1  UNL1        0.0400
     21 C         142.9459  136.3410  157.1311 C.ar    1  UNL1        0.1661
     22 O         143.2027  136.6495  158.5764 O.2     1  UNL1       -0.4237
     23 C         142.6536  138.7157  169.9614 C.3     1  UNL1        0.0310
     24 C         141.9460  139.5664  168.9486 C.ar    1  UNL1       -0.0216
     25 C         140.4808  139.8496  169.0994 C.ar    1  UNL1       -0.0026
     26 C         139.7732  140.7003  168.0867 C.ar    1  UNL1        0.0207
     27 C         140.5309  141.2679  166.9232 C.ar    1  UNL1        0.1072
     28 C         141.9961  140.9847  166.7723 C.ar    1  UNL1        0.0726
     29 C         142.7037  140.1339  167.7851 C.ar    1  UNL1        0.0018
     30 N         139.8233  142.1186  165.9105 N.ar    1  UNL1       -0.1477
     31 N         138.9256  141.6231  164.8156 N.ar    1  UNL1       -0.1447
     32 C         138.4366  142.8124  164.0433 C.ar    1  UNL1        0.1446
     33 C         139.0321  144.0429  164.6609 C.ar    1  UNL1        0.1446
     34 N         139.8891  143.6140  165.8149 N.ar    1  UNL1       -0.1447
@<TRIPOS>BOND
     1    23    24    1
     2    24    25   ar
     3    25    26   ar
     4    26    27   ar
     5    27    30    1
     6    30    31   ar
     7    31    32   ar
     8    32    33   ar
     9    33    34   ar
    10    27    28   ar
    11    28     1    1
    12     1     2    2
    13     1     3   am
    14     3     4    1
    15     4     5    1
    16     5     6    1
    17     5     7    1
    18     7     8    1
    19     8    13    1
    20    13    14   ar
    21    14    15   ar
    22    15    16   ar
    23    16    17   ar
    24    17    18    1
    25    17    19   ar
    26    19    20   ar
    27    20    21   ar
    28    21    22   ar
    29     8     9    1
    30     9    10    1
    31    10    11    1
    32    10    12    1
    33    28    29   ar
    34    29    24   ar
    35    34    30   ar
    36    12     3    1
    37    10     5    1
    38    22    13   ar
    39    21    15   ar
