@<TRIPOS>MOLECULE
*****
 32 35 0 0 0
SMALL
GASTEIGER

@<TRIPOS>ATOM
      1 C         138.8893  141.3502  163.7079 C.ar    1  UNL1        0.0300
      2 C         137.8646  142.3664  163.2990 C.ar    1  UNL1        0.0997
      3 N         137.6840  142.7081  161.8496 N.ar    1  UNL1       -0.2423
      4 C         138.5281  142.0336  160.8092 C.ar    1  UNL1        0.0997
      5 C         139.5529  141.0174  161.2181 C.ar    1  UNL1        0.0298
      6 C         139.7334  140.6757  162.6676 C.ar    1  UNL1        0.0606
      7 CL        140.7582  139.6594  163.0765 Cl      1  UNL1       -0.0821
      8 C         140.1693  141.4879  167.4619 C.ar    1  UNL1        0.1754
      9 C         139.9888  141.8295  166.0126 C.ar    1  UNL1        0.0403
     10 C         139.0698  141.0085  165.1573 C.ar    1  UNL1        0.0086
     11 C         138.3315  139.8458  165.7514 C.ar    1  UNL1        0.0403
     12 C         138.5121  139.5042  167.2007 C.ar    1  UNL1        0.1754
     13 C         139.4310  140.3252  168.0560 C.ar    1  UNL1        0.2061
     14 C         140.5232  143.3300  169.2595 C.3     1  UNL1        0.2526
     15 O         141.0883  142.3089  168.3172 O.3     1  UNL1       -0.4683
     16 O         137.7737  138.3414  167.7949 O.3     1  UNL1       -0.4683
     17 C         137.3890  137.1769  166.9314 C.3     1  UNL1        0.2526
     18 O         139.6115  139.9835  169.5054 O.3     1  UNL1       -0.4654
     19 C         140.9700  139.6187  170.0264 C.3     1  UNL1        0.2528
     20 C         140.3970  140.3428  160.1778 C.ar    1  UNL1        0.0024
     21 C         141.7604  140.8787  159.8554 C.ar    1  UNL1        0.0013
     22 C         142.6046  140.2042  158.8149 C.ar    1  UNL1        0.0145
     23 C         142.0854  138.9938  158.0970 C.ar    1  UNL1        0.0479
     24 C         140.7219  138.4580  158.4195 C.ar    1  UNL1        0.0145
     25 C         139.8778  139.1325  159.4598 C.ar    1  UNL1        0.0013
     26 N         142.9295  138.3193  157.0566 N.pl3   1  UNL1       -0.3047
     27 C         143.7769  139.1404  156.1306 C.3     1  UNL1        0.1079
     28 C         144.6212  138.4659  155.0901 C.3     1  UNL1        0.0903
     29 N         144.6179  136.9703  154.9758 N.3     1  UNL1       -0.2946
     30 C         143.7705  136.1492  155.9020 C.3     1  UNL1        0.0903
     31 C         142.9263  136.8237  156.9423 C.3     1  UNL1        0.1079
     32 H         145.5814  136.6628  155.1080 H       1  UNL1        0.1233
@<TRIPOS>BOND
     1    14    15    1
     2    15     8    1
     3     8     9   ar
     4     9    10   ar
     5    10     1    1
     6     1     2   ar
     7     2     3   ar
     8     3     4   ar
     9     4     5   ar
    10     5    20    1
    11    20    21   ar
    12    21    22   ar
    13    22    23   ar
    14    23    26    1
    15    26    27    1
    16    27    28    1
    17    28    29    1
    18    29    30    1
    19    30    31    1
    20    23    24   ar
    21    24    25   ar
    22     5     6   ar
    23     6     7    1
    24    10    11   ar
    25    11    12   ar
    26    12    16    1
    27    16    17    1
    28    12    13   ar
    29    13    18    1
    30    18    19    1
    31    13     8   ar
    32     6     1   ar
    33    25    20   ar
    34    31    26    1
    35    29    32    1
@<TRIPOS>MOLECULE
*****
 32 35 0 0 0
SMALL
GASTEIGER

@<TRIPOS>ATOM
      1 C         138.8775  141.3137  163.6997 C.ar    1  UNL1        0.0300
      2 C         137.8569  142.3330  163.2882 C.ar    1  UNL1        0.0997
      3 N         137.6785  142.6727  161.8381 N.ar    1  UNL1       -0.2423
      4 C         138.5207  141.9930  160.7994 C.ar    1  UNL1        0.0997
      5 C         139.5413  140.9737  161.2109 C.ar    1  UNL1        0.0298
      6 C         139.7197  140.6340  162.6611 C.ar    1  UNL1        0.0606
      7 CL        140.7403  139.6147  163.0725 Cl      1  UNL1       -0.0821
      8 C         138.4819  139.4831  167.1986 C.ar    1  UNL1        0.1754
      9 C         138.3035  139.8227  165.7485 C.ar    1  UNL1        0.0403
     10 C         139.0559  140.9740  165.1498 C.ar    1  UNL1        0.0086
     11 C         139.9866  141.7857  166.0012 C.ar    1  UNL1        0.0403
     12 C         140.1650  141.4460  167.4513 C.ar    1  UNL1        0.1754
     13 C         139.4126  140.2947  168.0500 C.ar    1  UNL1        0.2061
     14 C         137.3595  137.1537  166.9458 C.3     1  UNL1        0.2526
     15 O         137.7295  138.3318  167.7973 O.3     1  UNL1       -0.4683
     16 O         141.0958  142.2577  168.3028 O.3     1  UNL1       -0.4683
     17 C         140.5480  143.3150  169.2150 C.3     1  UNL1        0.2526
     18 O         139.5911  139.9551  169.5001 O.3     1  UNL1       -0.4654
     19 C         140.9582  139.6489  170.0360 C.3     1  UNL1        0.2528
     20 C         140.3835  140.2940  160.1723 C.ar    1  UNL1        0.0024
     21 C         139.8381  139.1192  159.4157 C.ar    1  UNL1        0.0013
     22 C         140.6803  138.4395  158.3771 C.ar    1  UNL1        0.0145
     23 C         142.0678  138.9346  158.0951 C.ar    1  UNL1        0.0479
     24 C         142.6132  140.1094  158.8517 C.ar    1  UNL1        0.0145
     25 C         141.7710  140.7891  159.8903 C.ar    1  UNL1        0.0013
     26 N         142.9100  138.2549  157.0565 N.pl3   1  UNL1       -0.3047
     27 C         142.9349  136.7574  156.9735 C.3     1  UNL1        0.1079
     28 C         143.7771  136.0777  155.9349 C.3     1  UNL1        0.0903
     29 N         144.5944  136.8954  154.9792 N.3     1  UNL1       -0.2946
     30 C         144.5695  138.3930  155.0623 C.3     1  UNL1        0.0903
     31 C         143.7273  139.0727  156.1009 C.3     1  UNL1        0.1079
     32 H         144.2844  136.6474  154.0397 H       1  UNL1        0.1233
@<TRIPOS>BOND
     1    14    15    1
     2    15     8    1
     3     8     9   ar
     4     9    10   ar
     5    10     1    1
     6     1     2   ar
     7     2     3   ar
     8     3     4   ar
     9     4     5   ar
    10     5    20    1
    11    20    21   ar
    12    21    22   ar
    13    22    23   ar
    14    23    26    1
    15    26    27    1
    16    27    28    1
    17    28    29    1
    18    29    30    1
    19    30    31    1
    20    23    24   ar
    21    24    25   ar
    22     5     6   ar
    23     6     7    1
    24    10    11   ar
    25    11    12   ar
    26    12    16    1
    27    16    17    1
    28    12    13   ar
    29    13    18    1
    30    18    19    1
    31    13     8   ar
    32     6     1   ar
    33    25    20   ar
    34    31    26    1
    35    29    32    1
@<TRIPOS>MOLECULE
*****
 32 35 0 0 0
SMALL
GASTEIGER

@<TRIPOS>ATOM
      1 C         140.6266  142.8060  164.8682 C.ar    1  UNL1        0.0300
      2 C         139.7378  144.0112  164.7811 C.ar    1  UNL1        0.0997
      3 N         139.7045  144.8292  163.5243 N.ar    1  UNL1       -0.2423
      4 C         140.5600  144.4421  162.3545 C.ar    1  UNL1        0.0997
      5 C         141.4488  143.2369  162.4416 C.ar    1  UNL1        0.0298
      6 C         141.4821  142.4189  163.6985 C.ar    1  UNL1        0.0606
      7 CL        142.3709  141.2137  163.7856 Cl      1  UNL1       -0.0821
      8 C         141.7976  141.3691  168.3774 C.ar    1  UNL1        0.1754
      9 C         141.7642  142.1871  167.1205 C.ar    1  UNL1        0.0403
     10 C         140.6599  141.9879  166.1251 C.ar    1  UNL1        0.0086
     11 C         139.5889  140.9708  166.3866 C.ar    1  UNL1        0.0403
     12 C         139.6222  140.1529  167.6435 C.ar    1  UNL1        0.1754
     13 C         140.7266  140.3520  168.6388 C.ar    1  UNL1        0.2061
     14 C         142.6870  142.4537  170.5643 C.3     1  UNL1        0.2526
     15 O         142.9019  141.5682  169.3728 O.3     1  UNL1       -0.4683
     16 O         138.5512  139.1357  167.9050 O.3     1  UNL1       -0.4683
     17 C         137.7653  138.5635  166.7627 C.3     1  UNL1        0.2526
     18 O         140.7599  139.5339  169.8958 O.3     1  UNL1       -0.4654
     19 C         139.9241  139.9360  171.0747 C.3     1  UNL1        0.2528
     20 C         142.3042  142.8498  161.2719 C.ar    1  UNL1        0.0024
     21 C         141.6932  142.1476  160.0957 C.ar    1  UNL1        0.0013
     22 C         142.5487  141.7604  158.9259 C.ar    1  UNL1        0.0145
     23 C         144.0152  142.0755  158.9324 C.ar    1  UNL1        0.0479
     24 C         144.6263  142.7776  160.1087 C.ar    1  UNL1        0.0145
     25 C         143.7708  143.1648  161.2784 C.ar    1  UNL1        0.0013
     26 N         144.8707  141.6883  157.7627 N.pl3   1  UNL1       -0.3047
     27 C         144.5073  140.4945  156.9304 C.3     1  UNL1        0.1079
     28 C         145.3628  140.1073  155.7606 C.3     1  UNL1        0.0903
     29 N         146.5816  140.9140  155.4232 N.3     1  UNL1       -0.2946
     30 C         146.9450  142.1078  156.2556 C.3     1  UNL1        0.0903
     31 C         146.0895  142.4949  157.4253 C.3     1  UNL1        0.1079
     32 H         146.4584  141.2480  154.4674 H       1  UNL1        0.1233
@<TRIPOS>BOND
     1    14    15    1
     2    15     8    1
     3     8     9   ar
     4     9    10   ar
     5    10     1    1
     6     1     2   ar
     7     2     3   ar
     8     3     4   ar
     9     4     5   ar
    10     5    20    1
    11    20    21   ar
    12    21    22   ar
    13    22    23   ar
    14    23    26    1
    15    26    27    1
    16    27    28    1
    17    28    29    1
    18    29    30    1
    19    30    31    1
    20    23    24   ar
    21    24    25   ar
    22     5     6   ar
    23     6     7    1
    24    10    11   ar
    25    11    12   ar
    26    12    16    1
    27    16    17    1
    28    12    13   ar
    29    13    18    1
    30    18    19    1
    31    13     8   ar
    32     6     1   ar
    33    25    20   ar
    34    31    26    1
    35    29    32    1
@<TRIPOS>MOLECULE
*****
 32 35 0 0 0
SMALL
GASTEIGER

@<TRIPOS>ATOM
      1 C         140.5573  142.7280  164.7906 C.ar    1  UNL1        0.0300
      2 C         139.6177  143.8920  164.6797 C.ar    1  UNL1        0.0997
      3 N         139.5673  144.6973  163.4152 N.ar    1  UNL1       -0.2423
      4 C         140.4566  144.3386  162.2616 C.ar    1  UNL1        0.0997
      5 C         141.3962  143.1747  162.3726 C.ar    1  UNL1        0.0298
      6 C         141.4465  142.3693  163.6371 C.ar    1  UNL1        0.0606
      7 CL        142.3861  141.2053  163.7480 Cl      1  UNL1       -0.0821
      8 C         139.5739  140.1253  167.6207 C.ar    1  UNL1        0.1754
      9 C         139.5236  140.9307  166.3562 C.ar    1  UNL1        0.0403
     10 C         140.6077  141.9226  166.0552 C.ar    1  UNL1        0.0086
     11 C         141.7421  142.1093  167.0185 C.ar    1  UNL1        0.0403
     12 C         141.7924  141.3040  168.2830 C.ar    1  UNL1        0.1754
     13 C         140.7083  140.3120  168.5841 C.ar    1  UNL1        0.2061
     14 C         137.7249  138.4948  166.8005 C.3     1  UNL1        0.2526
     15 O         138.4898  139.1333  167.9217 O.3     1  UNL1       -0.4683
     16 O         142.9269  141.4907  169.2465 O.3     1  UNL1       -0.4683
     17 C         142.8538  142.5634  170.2924 C.3     1  UNL1        0.2526
     18 O         140.7587  139.5067  169.8486 O.3     1  UNL1       -0.4654
     19 C         140.1364  140.0421  171.1040 C.3     1  UNL1        0.2528
     20 C         142.2854  142.8160  161.2191 C.ar    1  UNL1        0.0024
     21 C         143.7290  143.2231  161.2301 C.ar    1  UNL1        0.0013
     22 C         144.6183  142.8644  160.0766 C.ar    1  UNL1        0.0145
     23 C         144.0638  142.0987  158.9120 C.ar    1  UNL1        0.0479
     24 C         142.6201  141.6916  158.9010 C.ar    1  UNL1        0.0145
     25 C         141.7309  142.0502  160.0545 C.ar    1  UNL1        0.0013
     26 N         144.9530  141.7400  157.7585 N.pl3   1  UNL1       -0.3047
     27 C         144.5773  140.6115  156.8446 C.3     1  UNL1        0.1079
     28 C         145.4666  140.2528  155.6910 C.3     1  UNL1        0.0903
     29 N         146.7315  141.0226  155.4514 N.3     1  UNL1       -0.2946
     30 C         147.1071  142.1512  156.3654 C.3     1  UNL1        0.0903
     31 C         146.2179  142.5098  157.5189 C.3     1  UNL1        0.1079
     32 H         146.6643  141.4144  154.5120 H       1  UNL1        0.1233
@<TRIPOS>BOND
     1    14    15    1
     2    15     8    1
     3     8     9   ar
     4     9    10   ar
     5    10     1    1
     6     1     2   ar
     7     2     3   ar
     8     3     4   ar
     9     4     5   ar
    10     5    20    1
    11    20    21   ar
    12    21    22   ar
    13    22    23   ar
    14    23    26    1
    15    26    27    1
    16    27    28    1
    17    28    29    1
    18    29    30    1
    19    30    31    1
    20    23    24   ar
    21    24    25   ar
    22     5     6   ar
    23     6     7    1
    24    10    11   ar
    25    11    12   ar
    26    12    16    1
    27    16    17    1
    28    12    13   ar
    29    13    18    1
    30    18    19    1
    31    13     8   ar
    32     6     1   ar
    33    25    20   ar
    34    31    26    1
    35    29    32    1
@<TRIPOS>MOLECULE
*****
 32 35 0 0 0
SMALL
GASTEIGER

@<TRIPOS>ATOM
      1 C         141.0393  142.4094  160.5195 C.ar    1  UNL1        0.0300
      2 C         141.4937  143.7653  160.0667 C.ar    1  UNL1        0.0997
      3 N         142.0108  144.7559  161.0674 N.ar    1  UNL1       -0.2423
      4 C         142.0735  144.3906  162.5209 C.ar    1  UNL1        0.0997
      5 C         141.6190  143.0347  162.9737 C.ar    1  UNL1        0.0298
      6 C         141.1019  142.0441  161.9730 C.ar    1  UNL1        0.0606
      7 CL        140.6475  140.6882  162.4258 Cl      1  UNL1       -0.0821
      8 C         140.9546  139.4945  157.8276 C.ar    1  UNL1        0.1754
      9 C         141.4716  140.4851  158.8283 C.ar    1  UNL1        0.0403
     10 C         140.5222  141.4188  159.5188 C.ar    1  UNL1        0.0086
     11 C         139.0557  141.3619  159.2086 C.ar    1  UNL1        0.0403
     12 C         138.5387  140.3714  158.2079 C.ar    1  UNL1        0.1754
     13 C         139.4881  139.4377  157.5174 C.ar    1  UNL1        0.2061
     14 C         142.5769  137.4670  157.9121 C.3     1  UNL1        0.2526
     15 O         141.9040  138.5608  157.1371 O.3     1  UNL1       -0.4683
     16 O         137.0722  140.3145  157.8977 O.3     1  UNL1       -0.4683
     17 C         136.5224  141.0787  156.7300 C.3     1  UNL1        0.2526
     18 O         138.9711  138.4471  156.5167 O.3     1  UNL1       -0.4654
     19 C         138.9979  138.7757  155.0534 C.3     1  UNL1        0.2528
     20 C         141.6816  142.6694  164.4272 C.ar    1  UNL1        0.0024
     21 C         142.9582  142.1443  165.0142 C.ar    1  UNL1        0.0013
     22 C         143.0209  141.7790  166.4677 C.ar    1  UNL1        0.0145
     23 C         141.8069  141.9387  167.3342 C.ar    1  UNL1        0.0479
     24 C         140.5303  142.4638  166.7471 C.ar    1  UNL1        0.0145
     25 C         140.4677  142.8291  165.2936 C.ar    1  UNL1        0.0013
     26 N         141.8696  141.5734  168.7876 N.pl3   1  UNL1       -0.3047
     27 C         141.0009  142.2894  169.7789 C.3     1  UNL1        0.1079
     28 C         141.0635  141.9241  171.2325 C.3     1  UNL1        0.0903
     29 N         141.9948  140.8428  171.6946 N.3     1  UNL1       -0.2946
     30 C         142.8635  140.1268  170.7032 C.3     1  UNL1        0.0903
     31 C         142.8008  140.4921  169.2497 C.3     1  UNL1        0.1079
     32 H         141.4198  140.1332  172.1488 H       1  UNL1        0.1233
@<TRIPOS>BOND
     1    14    15    1
     2    15     8    1
     3     8     9   ar
     4     9    10   ar
     5    10     1    1
     6     1     2   ar
     7     2     3   ar
     8     3     4   ar
     9     4     5   ar
    10     5    20    1
    11    20    21   ar
    12    21    22   ar
    13    22    23   ar
    14    23    26    1
    15    26    27    1
    16    27    28    1
    17    28    29    1
    18    29    30    1
    19    30    31    1
    20    23    24   ar
    21    24    25   ar
    22     5     6   ar
    23     6     7    1
    24    10    11   ar
    25    11    12   ar
    26    12    16    1
    27    16    17    1
    28    12    13   ar
    29    13    18    1
    30    18    19    1
    31    13     8   ar
    32     6     1   ar
    33    25    20   ar
    34    31    26    1
    35    29    32    1
@<TRIPOS>MOLECULE
*****
 32 35 0 0 0
SMALL
GASTEIGER

@<TRIPOS>ATOM
      1 C         141.3666  142.0630  160.4880 C.ar    1  UNL1        0.0300
      2 C         142.0916  143.2579  159.9436 C.ar    1  UNL1        0.0997
      3 N         142.6625  144.2802  160.8812 N.ar    1  UNL1       -0.2423
      4 C         142.5084  144.1074  162.3633 C.ar    1  UNL1        0.0997
      5 C         141.7834  142.9125  162.9077 C.ar    1  UNL1        0.0298
      6 C         141.2125  141.8902  161.9700 C.ar    1  UNL1        0.0606
      7 CL        140.4875  140.6952  162.5144 Cl      1  UNL1       -0.0821
      8 C         138.8060  140.1421  158.1420 C.ar    1  UNL1        0.1754
      9 C         139.3769  141.1643  159.0797 C.ar    1  UNL1        0.0403
     10 C         140.7957  141.0407  159.5504 C.ar    1  UNL1        0.0086
     11 C         141.6437  139.8949  159.0835 C.ar    1  UNL1        0.0403
     12 C         141.0728  138.8727  158.1458 C.ar    1  UNL1        0.1754
     13 C         139.6539  138.9963  157.6751 C.ar    1  UNL1        0.2061
     14 C         137.0566  141.1582  156.5119 C.3     1  UNL1        0.2526
     15 O         137.3871  140.2658  157.6713 O.3     1  UNL1       -0.4683
     16 O         141.9207  137.7268  157.6789 O.3     1  UNL1       -0.4683
     17 C         142.7530  137.8662  156.4388 C.3     1  UNL1        0.2526
     18 O         139.0830  137.9741  156.7375 O.3     1  UNL1       -0.4654
     19 C         139.1224  138.2098  155.2566 C.3     1  UNL1        0.2528
     20 C         141.6293  142.7397  164.3897 C.ar    1  UNL1        0.0024
     21 C         140.3764  143.2025  165.0724 C.ar    1  UNL1        0.0013
     22 C         140.2222  143.0297  166.5545 C.ar    1  UNL1        0.0145
     23 C         141.3210  142.3942  167.3538 C.ar    1  UNL1        0.0479
     24 C         142.5739  141.9314  166.6710 C.ar    1  UNL1        0.0145
     25 C         142.7280  142.1042  165.1890 C.ar    1  UNL1        0.0013
     26 N         141.1669  142.2214  168.8357 N.pl3   1  UNL1       -0.3047
     27 C         140.1526  143.0346  169.5841 C.3     1  UNL1        0.1079
     28 C         139.9984  142.8618  171.0662 C.3     1  UNL1        0.0903
     29 N         140.8586  141.8760  171.7998 N.3     1  UNL1       -0.2946
     30 C         141.8729  141.0628  171.0514 C.3     1  UNL1        0.0903
     31 C         142.0270  141.2356  169.5694 C.3     1  UNL1        0.1079
     32 H         140.2278  141.2150  172.2532 H       1  UNL1        0.1233
@<TRIPOS>BOND
     1    14    15    1
     2    15     8    1
     3     8     9   ar
     4     9    10   ar
     5    10     1    1
     6     1     2   ar
     7     2     3   ar
     8     3     4   ar
     9     4     5   ar
    10     5    20    1
    11    20    21   ar
    12    21    22   ar
    13    22    23   ar
    14    23    26    1
    15    26    27    1
    16    27    28    1
    17    28    29    1
    18    29    30    1
    19    30    31    1
    20    23    24   ar
    21    24    25   ar
    22     5     6   ar
    23     6     7    1
    24    10    11   ar
    25    11    12   ar
    26    12    16    1
    27    16    17    1
    28    12    13   ar
    29    13    18    1
    30    18    19    1
    31    13     8   ar
    32     6     1   ar
    33    25    20   ar
    34    31    26    1
    35    29    32    1
@<TRIPOS>MOLECULE
*****
 32 35 0 0 0
SMALL
GASTEIGER

@<TRIPOS>ATOM
      1 C         142.5462  143.0315  160.5378 C.ar    1  UNL1        0.0300
      2 C         141.8112  144.2787  160.1451 C.ar    1  UNL1        0.0997
      3 N         141.0978  145.0884  161.1869 N.ar    1  UNL1       -0.2423
      4 C         141.1195  144.6509  162.6216 C.ar    1  UNL1        0.0997
      5 C         141.8545  143.4037  163.0144 C.ar    1  UNL1        0.0298
      6 C         142.5679  142.5940  161.9724 C.ar    1  UNL1        0.0606
      7 CL        143.3030  141.3468  162.3652 Cl      1  UNL1       -0.0821
      8 C         145.1487  141.9944  157.7268 C.ar    1  UNL1        0.1754
      9 C         144.4353  142.8040  158.7687 C.ar    1  UNL1        0.0403
     10 C         143.2596  142.2218  159.4959 C.ar    1  UNL1        0.0086
     11 C         142.7973  140.8300  159.1813 C.ar    1  UNL1        0.0403
     12 C         143.5107  140.0204  158.1394 C.ar    1  UNL1        0.1754
     13 C         144.6864  140.6026  157.4122 C.ar    1  UNL1        0.2061
     14 C         147.4519  143.1957  157.7712 C.3     1  UNL1        0.2526
     15 O         146.3243  142.5766  156.9996 O.3     1  UNL1       -0.4683
     16 O         143.0484  138.6284  157.8247 O.3     1  UNL1       -0.4683
     17 C         142.5985  137.7197  158.9300 C.3     1  UNL1        0.2526
     18 O         145.3998  139.7928  156.3703 O.3     1  UNL1       -0.4654
     19 C         144.9139  139.8015  154.9511 C.3     1  UNL1        0.2528
     20 C         141.8762  142.9663  164.4489 C.ar    1  UNL1        0.0024
     21 C         143.1842  142.8176  165.1680 C.ar    1  UNL1        0.0013
     22 C         143.2059  142.3801  166.6026 C.ar    1  UNL1        0.0145
     23 C         141.9196  142.0913  167.3182 C.ar    1  UNL1        0.0479
     24 C         140.6116  142.2400  166.5991 C.ar    1  UNL1        0.0145
     25 C         140.5899  142.6774  165.1645 C.ar    1  UNL1        0.0013
     26 N         141.9413  141.6538  168.7528 N.pl3   1  UNL1       -0.3047
     27 C         141.0504  142.3255  169.7552 C.3     1  UNL1        0.1079
     28 C         141.0720  141.8881  171.1899 C.3     1  UNL1        0.0903
     29 N         141.9846  140.7788  171.6221 N.3     1  UNL1       -0.2946
     30 C         142.8756  140.1071  170.6195 C.3     1  UNL1        0.0903
     31 C         142.8539  140.5446  169.1849 C.3     1  UNL1        0.1079
     32 H         141.3938  140.0515  172.0249 H       1  UNL1        0.1233
@<TRIPOS>BOND
     1    14    15    1
     2    15     8    1
     3     8     9   ar
     4     9    10   ar
     5    10     1    1
     6     1     2   ar
     7     2     3   ar
     8     3     4   ar
     9     4     5   ar
    10     5    20    1
    11    20    21   ar
    12    21    22   ar
    13    22    23   ar
    14    23    26    1
    15    26    27    1
    16    27    28    1
    17    28    29    1
    18    29    30    1
    19    30    31    1
    20    23    24   ar
    21    24    25   ar
    22     5     6   ar
    23     6     7    1
    24    10    11   ar
    25    11    12   ar
    26    12    16    1
    27    16    17    1
    28    12    13   ar
    29    13    18    1
    30    18    19    1
    31    13     8   ar
    32     6     1   ar
    33    25    20   ar
    34    31    26    1
    35    29    32    1
@<TRIPOS>MOLECULE
*****
 32 35 0 0 0
SMALL
GASTEIGER

@<TRIPOS>ATOM
      1 C         140.2040  141.2001  160.3847 C.ar    1  UNL1        0.0300
      2 C         139.1969  142.1816  159.8628 C.ar    1  UNL1        0.0997
      3 N         138.3927  143.0113  160.8193 N.ar    1  UNL1       -0.2423
      4 C         138.5957  142.8594  162.2978 C.ar    1  UNL1        0.0997
      5 C         139.6027  141.8778  162.8197 C.ar    1  UNL1        0.0298
      6 C         140.4069  141.0482  161.8631 C.ar    1  UNL1        0.0606
      7 CL        141.4140  140.0666  162.3849 Cl      1  UNL1       -0.0821
      8 C         141.1780  138.3739  157.7743 C.ar    1  UNL1        0.1754
      9 C         140.3739  139.2035  158.7309 C.ar    1  UNL1        0.0403
     10 C         141.0082  140.3704  159.4280 C.ar    1  UNL1        0.0086
     11 C         142.4465  140.7077  159.1686 C.ar    1  UNL1        0.0403
     12 C         143.2506  139.8781  158.2120 C.ar    1  UNL1        0.1754
     13 C         142.6164  138.7112  157.5149 C.ar    1  UNL1        0.2061
     14 C         139.7921  137.4167  155.7962 C.3     1  UNL1        0.2526
     15 O         140.5438  137.2069  157.0772 O.3     1  UNL1       -0.4683
     16 O         144.6890  140.2153  157.9526 O.3     1  UNL1       -0.4683
     17 C         145.0397  141.3750  157.0682 C.3     1  UNL1        0.2526
     18 O         143.4205  137.8815  156.5583 O.3     1  UNL1       -0.4654
     19 C         143.5726  138.3182  155.1314 C.3     1  UNL1        0.2528
     20 C         139.8057  141.7259  164.2981 C.ar    1  UNL1        0.0024
     21 C         140.6921  142.6851  165.0358 C.ar    1  UNL1        0.0013
     22 C         140.8950  142.5332  166.5143 C.ar    1  UNL1        0.0145
     23 C         140.2116  141.4221  167.2549 C.ar    1  UNL1        0.0479
     24 C         139.3252  140.4630  166.5171 C.ar    1  UNL1        0.0145
     25 C         139.1222  140.6149  165.0387 C.ar    1  UNL1        0.0013
     26 N         140.4145  141.2702  168.7333 N.pl3   1  UNL1       -0.3047
     27 C         141.2619  142.2578  169.4794 C.3     1  UNL1        0.1079
     28 C         141.4649  142.1059  170.9579 C.3     1  UNL1        0.0903
     29 N         140.8204  140.9664  171.6902 N.3     1  UNL1       -0.2946
     30 C         139.9730  139.9789  170.9441 C.3     1  UNL1        0.0903
     31 C         139.7700  140.1308  169.4657 C.3     1  UNL1        0.1079
     32 H         140.2276  141.3776  172.4113 H       1  UNL1        0.1233
@<TRIPOS>BOND
     1    14    15    1
     2    15     8    1
     3     8     9   ar
     4     9    10   ar
     5    10     1    1
     6     1     2   ar
     7     2     3   ar
     8     3     4   ar
     9     4     5   ar
    10     5    20    1
    11    20    21   ar
    12    21    22   ar
    13    22    23   ar
    14    23    26    1
    15    26    27    1
    16    27    28    1
    17    28    29    1
    18    29    30    1
    19    30    31    1
    20    23    24   ar
    21    24    25   ar
    22     5     6   ar
    23     6     7    1
    24    10    11   ar
    25    11    12   ar
    26    12    16    1
    27    16    17    1
    28    12    13   ar
    29    13    18    1
    30    18    19    1
    31    13     8   ar
    32     6     1   ar
    33    25    20   ar
    34    31    26    1
    35    29    32    1
@<TRIPOS>MOLECULE
*****
 32 35 0 0 0
SMALL
GASTEIGER

@<TRIPOS>ATOM
      1 C         142.5900  141.4209  164.0628 C.ar    1  UNL1        0.0300
      2 C         143.9321  140.8012  163.8083 C.ar    1  UNL1        0.0997
      3 N         144.5541  140.8919  162.4464 N.ar    1  UNL1       -0.2423
      4 C         143.8339  141.6024  161.3388 C.ar    1  UNL1        0.0997
      5 C         142.4918  142.2221  161.5933 C.ar    1  UNL1        0.0298
      6 C         141.8699  142.1313  162.9553 C.ar    1  UNL1        0.0606
      7 CL        140.5278  142.7511  163.2097 Cl      1  UNL1       -0.0821
      8 C         141.9093  142.0402  167.9232 C.ar    1  UNL1        0.1754
      9 C         142.5312  142.1310  166.5613 C.ar    1  UNL1        0.0403
     10 C         141.9681  141.3301  165.4248 C.ar    1  UNL1        0.0086
     11 C         140.7832  140.4385  165.6503 C.ar    1  UNL1        0.0403
     12 C         140.1613  140.3477  167.0122 C.ar    1  UNL1        0.1754
     13 C         140.7244  141.1486  168.1487 C.ar    1  UNL1        0.2061
     14 C         143.6987  142.3629  169.7789 C.3     1  UNL1        0.2526
     15 O         142.4724  142.8411  169.0597 O.3     1  UNL1       -0.4683
     16 O         138.9763  139.4560  167.2378 O.3     1  UNL1       -0.4683
     17 C         138.0857  139.0872  166.0886 C.3     1  UNL1        0.2526
     18 O         140.1024  141.0578  169.5107 O.3     1  UNL1       -0.4654
     19 C         140.5725  140.0157  170.4819 C.3     1  UNL1        0.2528
     20 C         141.7717  142.9326  160.4858 C.ar    1  UNL1        0.0024
     21 C         141.0432  142.1443  159.4380 C.ar    1  UNL1        0.0013
     22 C         140.3229  142.8548  158.3305 C.ar    1  UNL1        0.0145
     23 C         140.3313  144.3535  158.2707 C.ar    1  UNL1        0.0479
     24 C         141.0599  145.1419  159.3185 C.ar    1  UNL1        0.0145
     25 C         141.7800  144.4314  160.4260 C.ar    1  UNL1        0.0013
     26 N         139.6111  145.0640  157.1632 N.pl3   1  UNL1       -0.3047
     27 C         139.7642  146.5471  156.9995 C.3     1  UNL1        0.1079
     28 C         139.0440  147.2577  155.8919 C.3     1  UNL1        0.0903
     29 N         138.1708  146.4850  154.9482 N.3     1  UNL1       -0.2946
     30 C         138.0178  145.0018  155.1121 C.3     1  UNL1        0.0903
     31 C         138.7380  144.2914  156.2195 C.3     1  UNL1        0.1079
     32 H         138.5404  146.6411  154.0104 H       1  UNL1        0.1233
@<TRIPOS>BOND
     1    14    15    1
     2    15     8    1
     3     8     9   ar
     4     9    10   ar
     5    10     1    1
     6     1     2   ar
     7     2     3   ar
     8     3     4   ar
     9     4     5   ar
    10     5    20    1
    11    20    21   ar
    12    21    22   ar
    13    22    23   ar
    14    23    26    1
    15    26    27    1
    16    27    28    1
    17    28    29    1
    18    29    30    1
    19    30    31    1
    20    23    24   ar
    21    24    25   ar
    22     5     6   ar
    23     6     7    1
    24    10    11   ar
    25    11    12   ar
    26    12    16    1
    27    16    17    1
    28    12    13   ar
    29    13    18    1
    30    18    19    1
    31    13     8   ar
    32     6     1   ar
    33    25    20   ar
    34    31    26    1
    35    29    32    1
