@<TRIPOS>MOLECULE
*****
 36 40 0 0 0
SMALL
GASTEIGER

@<TRIPOS>ATOM
      1 C         140.7251  145.1677  161.1765 C.ar    1  UNL1        0.0504
      2 C         141.0652  144.7766  159.7689 C.ar    1  UNL1        0.0060
      3 C         142.2890  143.9103  159.8114 C.ar    1  UNL1        0.0038
      4 C         142.7053  143.7660  161.2452 C.ar    1  UNL1        0.0232
      5 S         141.7387  144.5431  162.0889 S.2     1  UNL1       -0.0906
      6 C         139.5736  146.0317  161.5978 C.3     1  UNL1        0.2384
      7 O         138.5396  145.4951  162.5427 O.3     1  UNL1       -0.4701
      8 C         139.3043  141.6639  164.7757 C.ar    1  UNL1       -0.0099
      9 C         139.6559  142.9804  165.4027 C.ar    1  UNL1       -0.0002
     10 C         139.4010  144.2575  164.6584 C.ar    1  UNL1        0.0366
     11 C         138.7945  144.2180  163.2871 C.ar    1  UNL1        0.1391
     12 C         138.4429  142.9014  162.6600 C.ar    1  UNL1        0.0366
     13 C         138.6978  141.6243  163.4044 C.ar    1  UNL1       -0.0002
     14 C         139.5592  140.3867  165.5201 C.3     1  UNL1        0.0917
     15 C         138.9811  140.2280  169.9800 C.3     1  UNL1        0.0900
     16 C         139.1738  140.2809  168.4934 C.1     1  UNL1       -0.0897
     17 C         139.3665  140.3338  167.0067 C.1     1  UNL1       -0.0872
     18 C         140.0068  139.1625  164.7779 C.3     1  UNL1        0.0591
     19 C         139.0160  138.0903  164.4332 C.2     1  UNL1        0.0517
     20 O         138.5090  137.9614  163.0274 O.co2   1  UNL1       -0.5491
     21 O         138.5324  137.1469  165.4944 O.co2   1  UNL1       -0.5491
     22 C         143.8815  142.9823  161.7472 C.3     1  UNL1        0.1057
     23 N         143.7257  142.0683  162.9264 N.3     1  UNL1       -0.2685
     24 C         143.4022  142.6350  164.2770 C.3     1  UNL1        0.0727
     25 C         143.2464  141.7211  165.4561 C.3     1  UNL1        0.0214
     26 C         143.4141  140.2403  165.2847 C.3     1  UNL1        0.0216
     27 C         143.5519  138.7468  165.2668 C.3     1  UNL1        0.0088
     28 C         143.3161  138.2428  166.6599 C.3     1  UNL1        0.0264
     29 C         143.0325  139.4249  167.5387 C.ar    1  UNL1       -0.0261
     30 C         142.7270  139.5367  169.0029 C.ar    1  UNL1       -0.0046
     31 C         142.4820  140.8829  169.6173 C.ar    1  UNL1       -0.0003
     32 C         142.5426  142.1175  168.7674 C.ar    1  UNL1       -0.0003
     33 C         142.8481  142.0057  167.3032 C.ar    1  UNL1       -0.0046
     34 C         143.0931  140.6594  166.6888 C.ar    1  UNL1       -0.0266
     35 C         143.7376  139.6736  163.9341 C.3     1  UNL1        0.0214
     36 C         143.8934  140.5876  162.7550 C.3     1  UNL1        0.0727
@<TRIPOS>UNITY_ATOM_ATTR
20 1
charge -1
@<TRIPOS>BOND
     1    15    16    1
     2    16    17    3
     3    14    17    1
     4    14    18    1
     5    18    19    1
     6    19    20   ar
     7    19    21   ar
     8    14     8    1
     9     8     9   ar
    10     9    10   ar
    11    10    11   ar
    12    11     7    1
    13     7     6    1
    14     6     1    1
    15     1     2   ar
    16     2     3   ar
    17     3     4   ar
    18     4    22    1
    19    22    23    1
    20    23    24    1
    21    24    25    1
    22    25    26    1
    23    26    27    1
    24    27    28    1
    25    28    29    1
    26    29    30   ar
    27    30    31   ar
    28    31    32   ar
    29    32    33   ar
    30    33    34   ar
    31    26    35    1
    32    35    36    1
    33     4     5   ar
    34    11    12   ar
    35    12    13   ar
    36    13     8   ar
    37     5     1   ar
    38    36    23    1
    39    34    26    1
    40    34    29   ar
@<TRIPOS>MOLECULE
*****
 36 40 0 0 0
SMALL
GASTEIGER

@<TRIPOS>ATOM
      1 C         140.7528  145.2132  161.1472 C.ar    1  UNL1        0.0504
      2 C         141.0754  144.7581  159.7548 C.ar    1  UNL1        0.0060
      3 C         142.3113  143.9104  159.8189 C.ar    1  UNL1        0.0038
      4 C         142.7525  143.8417  161.2509 C.ar    1  UNL1        0.0232
      5 S         141.7893  144.6468  162.0718 S.2     1  UNL1       -0.0906
      6 C         139.5967  146.0821  161.5452 C.3     1  UNL1        0.2384
      7 O         138.5184  145.5355  162.4331 O.3     1  UNL1       -0.4701
      8 C         139.3409  141.9518  165.0274 C.ar    1  UNL1       -0.0099
      9 C         138.7190  141.7714  163.6744 C.ar    1  UNL1       -0.0002
     10 C         138.4448  142.9659  162.8096 C.ar    1  UNL1        0.0366
     11 C         138.7925  144.3409  163.2978 C.ar    1  UNL1        0.1391
     12 C         139.4144  144.5214  164.6509 C.ar    1  UNL1        0.0366
     13 C         139.6886  143.3269  165.5157 C.ar    1  UNL1       -0.0002
     14 C         139.6151  140.7573  165.8922 C.3     1  UNL1        0.0917
     15 C         140.6923  136.8152  164.0081 C.3     1  UNL1        0.0900
     16 C         140.3332  138.1292  164.6361 C.1     1  UNL1       -0.0897
     17 C         139.9742  139.4433  165.2642 C.1     1  UNL1       -0.0872
     18 C         139.5303  140.8767  167.3850 C.3     1  UNL1        0.0591
     19 C         138.8867  139.7864  168.1893 C.2     1  UNL1        0.0517
     20 O         137.9985  138.7824  167.5162 O.co2   1  UNL1       -0.5491
     21 O         139.1313  139.7000  169.6667 O.co2   1  UNL1       -0.5491
     22 C         143.9471  143.0983  161.7707 C.3     1  UNL1        0.1057
     23 N         143.7998  142.1598  162.9315 N.3     1  UNL1       -0.2685
     24 C         143.4494  142.6944  164.2885 C.3     1  UNL1        0.0727
     25 C         143.3020  141.7559  165.4492 C.3     1  UNL1        0.0214
     26 C         143.5051  140.2827  165.2531 C.3     1  UNL1        0.0216
     27 C         143.6770  138.7932  165.2099 C.3     1  UNL1        0.0088
     28 C         143.4381  138.2588  166.5911 C.3     1  UNL1        0.0264
     29 C         143.1186  139.4181  167.4878 C.ar    1  UNL1       -0.0261
     30 C         142.7952  139.4964  168.9504 C.ar    1  UNL1       -0.0046
     31 C         142.5134  140.8253  169.5862 C.ar    1  UNL1       -0.0003
     32 C         142.5548  142.0762  168.7593 C.ar    1  UNL1       -0.0003
     33 C         142.8781  141.9980  167.2966 C.ar    1  UNL1       -0.0046
     34 C         143.1600  140.6689  166.6609 C.ar    1  UNL1       -0.0266
     35 C         143.8555  139.7481  163.8961 C.3     1  UNL1        0.0214
     36 C         144.0028  140.6866  162.7354 C.3     1  UNL1        0.0727
@<TRIPOS>UNITY_ATOM_ATTR
20 1
charge -1
@<TRIPOS>BOND
     1    15    16    1
     2    16    17    3
     3    14    17    1
     4    14    18    1
     5    18    19    1
     6    19    20   ar
     7    19    21   ar
     8    14     8    1
     9     8     9   ar
    10     9    10   ar
    11    10    11   ar
    12    11     7    1
    13     7     6    1
    14     6     1    1
    15     1     2   ar
    16     2     3   ar
    17     3     4   ar
    18     4    22    1
    19    22    23    1
    20    23    24    1
    21    24    25    1
    22    25    26    1
    23    26    27    1
    24    27    28    1
    25    28    29    1
    26    29    30   ar
    27    30    31   ar
    28    31    32   ar
    29    32    33   ar
    30    33    34   ar
    31    26    35    1
    32    35    36    1
    33     4     5   ar
    34    11    12   ar
    35    12    13   ar
    36    13     8   ar
    37     5     1   ar
    38    36    23    1
    39    34    26    1
    40    34    29   ar
@<TRIPOS>MOLECULE
*****
 36 40 0 0 0
SMALL
GASTEIGER

@<TRIPOS>ATOM
      1 C         138.8589  142.0308  158.2808 C.ar    1  UNL1        0.0504
      2 C         139.5729  142.8502  157.2468 C.ar    1  UNL1        0.0060
      3 C         140.1925  144.0293  157.9367 C.ar    1  UNL1        0.0038
      4 C         139.8615  143.9386  159.3969 C.ar    1  UNL1        0.0232
      5 S         139.0373  142.7035  159.6096 S.2     1  UNL1       -0.0906
      6 C         138.0999  140.7616  158.0300 C.3     1  UNL1        0.2384
      7 O         138.5113  139.4933  158.7171 O.3     1  UNL1       -0.4701
      8 C         139.1549  139.4537  163.1706 C.ar    1  UNL1       -0.0099
      9 C         140.3142  139.2390  162.2434 C.ar    1  UNL1       -0.0002
     10 C         140.0997  139.2522  160.7589 C.ar    1  UNL1        0.0366
     11 C         138.7259  139.4801  160.2017 C.ar    1  UNL1        0.1391
     12 C         137.5665  139.6948  161.1289 C.ar    1  UNL1        0.0366
     13 C         137.7809  139.6816  162.6134 C.ar    1  UNL1       -0.0002
     14 C         139.3693  139.4405  164.6552 C.3     1  UNL1        0.0917
     15 C         143.4595  138.5947  166.3302 C.3     1  UNL1        0.0900
     16 C         142.0961  138.8766  165.7719 C.1     1  UNL1       -0.0897
     17 C         140.7327  139.1586  165.2135 C.1     1  UNL1       -0.0872
     18 C         138.2205  139.7092  165.5814 C.3     1  UNL1        0.0591
     19 C         138.0828  138.9251  166.8528 C.2     1  UNL1        0.0517
     20 O         137.2299  137.6916  166.8846 O.co2   1  UNL1       -0.5491
     21 O         138.7980  139.3745  168.0923 O.co2   1  UNL1       -0.5491
     22 C         140.2810  144.9121  160.4581 C.3     1  UNL1        0.1057
     23 N         141.0596  144.4350  161.6482 N.3     1  UNL1       -0.2685
     24 C         140.3388  143.9756  162.8808 C.3     1  UNL1        0.0727
     25 C         141.1173  143.4984  164.0709 C.3     1  UNL1        0.0214
     26 C         142.6166  143.4807  164.0283 C.3     1  UNL1        0.0216
     27 C         144.1112  143.4065  164.1321 C.3     1  UNL1        0.0088
     28 C         144.4555  142.8738  165.4915 C.3     1  UNL1        0.0264
     29 C         143.1737  142.6189  166.2278 C.ar    1  UNL1       -0.0261
     30 C         142.8946  142.0936  167.6048 C.ar    1  UNL1       -0.0046
     31 C         141.4790  141.9434  168.0775 C.ar    1  UNL1       -0.0003
     32 C         140.3425  142.3185  167.1732 C.ar    1  UNL1       -0.0003
     33 C         140.6216  142.8437  165.7962 C.ar    1  UNL1       -0.0046
     34 C         142.0372  142.9939  165.3235 C.ar    1  UNL1       -0.0266
     35 C         143.3374  143.9401  162.7957 C.3     1  UNL1        0.0214
     36 C         142.5589  144.4172  161.6056 C.3     1  UNL1        0.0727
@<TRIPOS>UNITY_ATOM_ATTR
20 1
charge -1
@<TRIPOS>BOND
     1    15    16    1
     2    16    17    3
     3    14    17    1
     4    14    18    1
     5    18    19    1
     6    19    20   ar
     7    19    21   ar
     8    14     8    1
     9     8     9   ar
    10     9    10   ar
    11    10    11   ar
    12    11     7    1
    13     7     6    1
    14     6     1    1
    15     1     2   ar
    16     2     3   ar
    17     3     4   ar
    18     4    22    1
    19    22    23    1
    20    23    24    1
    21    24    25    1
    22    25    26    1
    23    26    27    1
    24    27    28    1
    25    28    29    1
    26    29    30   ar
    27    30    31   ar
    28    31    32   ar
    29    32    33   ar
    30    33    34   ar
    31    26    35    1
    32    35    36    1
    33     4     5   ar
    34    11    12   ar
    35    12    13   ar
    36    13     8   ar
    37     5     1   ar
    38    36    23    1
    39    34    26    1
    40    34    29   ar
@<TRIPOS>MOLECULE
*****
 36 40 0 0 0
SMALL
GASTEIGER

@<TRIPOS>ATOM
      1 C         141.2638  139.3709  158.0212 C.ar    1  UNL1        0.0504
      2 C         139.9748  139.2756  157.2600 C.ar    1  UNL1        0.0060
      3 C         139.0357  140.3092  157.8075 C.ar    1  UNL1        0.0038
      4 C         139.7443  141.0433  158.9071 C.ar    1  UNL1        0.0232
      5 S         141.1214  140.4633  159.0391 S.2     1  UNL1       -0.0906
      6 C         142.4815  138.5226  157.8027 C.3     1  UNL1        0.2384
      7 O         142.9887  137.6405  158.9048 O.3     1  UNL1       -0.4701
      8 C         142.9922  139.1240  163.1532 C.ar    1  UNL1       -0.0099
      9 C         141.8967  138.2170  162.6764 C.ar    1  UNL1       -0.0002
     10 C         141.8955  137.7225  161.2603 C.ar    1  UNL1        0.0366
     11 C         142.9898  138.1350  160.3210 C.ar    1  UNL1        0.1391
     12 C         144.0853  139.0420  160.7977 C.ar    1  UNL1        0.0366
     13 C         144.0865  139.5365  162.2139 C.ar    1  UNL1       -0.0002
     14 C         142.9934  139.6185  164.5693 C.3     1  UNL1        0.0917
     15 C         144.5365  143.7391  165.5125 C.3     1  UNL1        0.0900
     16 C         144.0221  142.3656  165.1981 C.1     1  UNL1       -0.0897
     17 C         143.5077  140.9920  164.8837 C.1     1  UNL1       -0.0872
     18 C         142.4802  138.7395  165.6712 C.3     1  UNL1        0.0591
     19 C         143.2781  138.5719  166.9302 C.2     1  UNL1        0.0517
     20 O         142.9597  139.4049  168.1364 O.co2   1  UNL1       -0.5491
     21 O         144.3945  137.5715  166.9832 O.co2   1  UNL1       -0.5491
     22 C         139.1758  142.1609  159.7302 C.3     1  UNL1        0.1057
     23 N         139.4221  142.2037  161.2092 N.3     1  UNL1       -0.2685
     24 C         139.0339  141.0369  162.0682 C.3     1  UNL1        0.0727
     25 C         139.2803  141.0797  163.5472 C.3     1  UNL1        0.0214
     26 C         139.9148  142.2892  164.1672 C.3     1  UNL1        0.0216
     27 C         140.5373  143.4243  164.9249 C.3     1  UNL1        0.0088
     28 C         140.5892  143.0410  166.3743 C.3     1  UNL1        0.0264
     29 C         139.9987  141.6689  166.5122 C.ar    1  UNL1       -0.0261
     30 C         139.7867  140.7827  167.7037 C.ar    1  UNL1       -0.0046
     31 C         139.1579  139.4319  167.5312 C.ar    1  UNL1       -0.0003
     32 C         138.7411  138.9672  166.1672 C.ar    1  UNL1       -0.0003
     33 C         138.9531  139.8535  164.9757 C.ar    1  UNL1       -0.0046
     34 C         139.5819  141.2043  165.1483 C.ar    1  UNL1       -0.0266
     35 C         140.3030  143.4560  163.3082 C.3     1  UNL1        0.0214
     36 C         140.0567  143.4132  161.8292 C.3     1  UNL1        0.0727
@<TRIPOS>UNITY_ATOM_ATTR
20 1
charge -1
@<TRIPOS>BOND
     1    15    16    1
     2    16    17    3
     3    14    17    1
     4    14    18    1
     5    18    19    1
     6    19    20   ar
     7    19    21   ar
     8    14     8    1
     9     8     9   ar
    10     9    10   ar
    11    10    11   ar
    12    11     7    1
    13     7     6    1
    14     6     1    1
    15     1     2   ar
    16     2     3   ar
    17     3     4   ar
    18     4    22    1
    19    22    23    1
    20    23    24    1
    21    24    25    1
    22    25    26    1
    23    26    27    1
    24    27    28    1
    25    28    29    1
    26    29    30   ar
    27    30    31   ar
    28    31    32   ar
    29    32    33   ar
    30    33    34   ar
    31    26    35    1
    32    35    36    1
    33     4     5   ar
    34    11    12   ar
    35    12    13   ar
    36    13     8   ar
    37     5     1   ar
    38    36    23    1
    39    34    26    1
    40    34    29   ar
@<TRIPOS>MOLECULE
*****
 36 40 0 0 0
SMALL
GASTEIGER

@<TRIPOS>ATOM
      1 C         140.0078  144.6777  159.6413 C.ar    1  UNL1        0.0504
      2 C         140.0044  144.6346  158.1419 C.ar    1  UNL1        0.0060
      3 C         140.0000  143.1953  157.7196 C.ar    1  UNL1        0.0038
      4 C         140.0007  142.3489  158.9580 C.ar    1  UNL1        0.0232
      5 S         140.0055  143.2651  160.1457 S.2     1  UNL1       -0.0906
      6 C         140.0126  145.9161  160.4877 C.3     1  UNL1        0.2384
      7 O         139.1314  146.0003  161.6987 O.3     1  UNL1       -0.4701
      8 C         139.7536  143.1635  165.1359 C.ar    1  UNL1       -0.0099
      9 C         138.3843  143.3435  164.5505 C.ar    1  UNL1       -0.0002
     10 C         138.1769  144.2891  163.4047 C.ar    1  UNL1        0.0366
     11 C         139.3387  145.0547  162.8445 C.ar    1  UNL1        0.1391
     12 C         140.7081  144.8747  163.4299 C.ar    1  UNL1        0.0366
     13 C         140.9155  143.9291  164.5757 C.ar    1  UNL1       -0.0002
     14 C         139.9610  142.2179  166.2817 C.3     1  UNL1        0.0917
     15 C         138.1710  138.0914  166.1458 C.3     1  UNL1        0.0900
     16 C         138.7677  139.4668  166.1911 C.1     1  UNL1       -0.0897
     17 C         139.3643  140.8424  166.2364 C.1     1  UNL1       -0.0872
     18 C         140.7651  142.6477  167.4728 C.3     1  UNL1        0.0591
     19 C         140.5625  141.9735  168.7974 C.2     1  UNL1        0.0517
     20 O         139.8689  142.7008  169.9109 O.co2   1  UNL1       -0.5491
     21 O         141.0537  140.5720  169.0085 O.co2   1  UNL1       -0.5491
     22 C         139.9972  140.8495  159.0012 C.3     1  UNL1        0.1057
     23 N         140.3490  140.1349  160.2723 N.3     1  UNL1       -0.2685
     24 C         141.1733  140.8260  161.3177 C.3     1  UNL1        0.0727
     25 C         141.5250  140.1114  162.5888 C.3     1  UNL1        0.0214
     26 C         141.0525  138.7058  162.8144 C.3     1  UNL1        0.0216
     27 C         140.6535  137.3064  163.1786 C.3     1  UNL1        0.0088
     28 C         141.2195  137.0009  164.5338 C.3     1  UNL1        0.0264
     29 C         141.9682  138.2115  165.0071 C.ar    1  UNL1       -0.0261
     30 C         142.7306  138.4905  166.2684 C.ar    1  UNL1       -0.0046
     31 C         143.3898  139.8230  166.4671 C.ar    1  UNL1       -0.0003
     32 C         143.2866  140.8768  165.4045 C.ar    1  UNL1       -0.0003
     33 C         142.5242  140.5978  164.1432 C.ar    1  UNL1       -0.0046
     34 C         141.8650  139.2651  163.9445 C.ar    1  UNL1       -0.0266
     35 C         140.2282  138.0147  161.7690 C.3     1  UNL1        0.0214
     36 C         139.8764  138.7293  160.4979 C.3     1  UNL1        0.0727
@<TRIPOS>UNITY_ATOM_ATTR
20 1
charge -1
@<TRIPOS>BOND
     1    15    16    1
     2    16    17    3
     3    14    17    1
     4    14    18    1
     5    18    19    1
     6    19    20   ar
     7    19    21   ar
     8    14     8    1
     9     8     9   ar
    10     9    10   ar
    11    10    11   ar
    12    11     7    1
    13     7     6    1
    14     6     1    1
    15     1     2   ar
    16     2     3   ar
    17     3     4   ar
    18     4    22    1
    19    22    23    1
    20    23    24    1
    21    24    25    1
    22    25    26    1
    23    26    27    1
    24    27    28    1
    25    28    29    1
    26    29    30   ar
    27    30    31   ar
    28    31    32   ar
    29    32    33   ar
    30    33    34   ar
    31    26    35    1
    32    35    36    1
    33     4     5   ar
    34    11    12   ar
    35    12    13   ar
    36    13     8   ar
    37     5     1   ar
    38    36    23    1
    39    34    26    1
    40    34    29   ar
@<TRIPOS>MOLECULE
*****
 36 40 0 0 0
SMALL
GASTEIGER

@<TRIPOS>ATOM
      1 C         140.8314  139.6135  158.0549 C.ar    1  UNL1        0.0504
      2 C         141.4403  138.2427  158.0720 C.ar    1  UNL1        0.0060
      3 C         142.6115  138.2675  159.0087 C.ar    1  UNL1        0.0038
      4 C         142.7266  139.6536  159.5705 C.ar    1  UNL1        0.0232
      5 S         141.6264  140.4854  158.9810 S.2     1  UNL1       -0.0906
      6 C         139.6372  140.0379  157.2525 C.3     1  UNL1        0.2384
      7 O         138.2917  140.1409  157.9074 O.3     1  UNL1       -0.4701
      8 C         137.9651  141.5499  162.1686 C.ar    1  UNL1       -0.0099
      9 C         138.2709  142.5307  161.0757 C.ar    1  UNL1       -0.0002
     10 C         138.3798  142.0611  159.6553 C.ar    1  UNL1        0.0366
     11 C         138.1828  140.6107  159.3278 C.ar    1  UNL1        0.1391
     12 C         137.8770  139.6297  160.4207 C.ar    1  UNL1        0.0366
     13 C         137.7681  140.0994  161.8412 C.ar    1  UNL1       -0.0002
     14 C         137.8562  142.0195  163.5890 C.3     1  UNL1        0.0917
     15 C         138.7111  139.1763  166.9707 C.3     1  UNL1        0.0900
     16 C         138.4261  140.1241  165.8435 C.1     1  UNL1       -0.0897
     17 C         138.1411  141.0718  164.7162 C.1     1  UNL1       -0.0872
     18 C         137.4623  143.4369  163.8823 C.3     1  UNL1        0.0591
     19 C         138.4946  144.4216  164.3457 C.2     1  UNL1        0.0517
     20 O         138.3171  145.1347  165.6533 O.co2   1  UNL1       -0.5491
     21 O         139.7043  144.6932  163.5015 O.co2   1  UNL1       -0.5491
     22 C         143.7603  140.1250  160.5499 C.3     1  UNL1        0.1057
     23 N         143.4962  140.0293  162.0234 N.3     1  UNL1       -0.2685
     24 C         142.7197  141.1086  162.7178 C.3     1  UNL1        0.0727
     25 C         142.4556  141.0130  164.1912 C.3     1  UNL1        0.0214
     26 C         142.9680  139.8380  164.9703 C.3     1  UNL1        0.0216
     27 C         143.4148  138.7289  165.8759 C.3     1  UNL1        0.0088
     28 C         142.9337  139.0401  167.2623 C.3     1  UNL1        0.0264
     29 C         142.1896  140.3416  167.2133 C.ar    1  UNL1       -0.0261
     30 C         141.4954  141.1414  168.2756 C.ar    1  UNL1       -0.0046
     31 C         140.8225  142.4343  167.9215 C.ar    1  UNL1       -0.0003
     32 C         140.8436  142.9275  166.5049 C.ar    1  UNL1       -0.0003
     33 C         141.5378  142.1277  165.4427 C.ar    1  UNL1       -0.0046
     34 C         142.2108  140.8348  165.7969 C.ar    1  UNL1       -0.0266
     35 C         143.7445  138.7587  164.2759 C.3     1  UNL1        0.0214
     36 C         144.0086  138.8544  162.8025 C.3     1  UNL1        0.0727
@<TRIPOS>UNITY_ATOM_ATTR
20 1
charge -1
@<TRIPOS>BOND
     1    15    16    1
     2    16    17    3
     3    14    17    1
     4    14    18    1
     5    18    19    1
     6    19    20   ar
     7    19    21   ar
     8    14     8    1
     9     8     9   ar
    10     9    10   ar
    11    10    11   ar
    12    11     7    1
    13     7     6    1
    14     6     1    1
    15     1     2   ar
    16     2     3   ar
    17     3     4   ar
    18     4    22    1
    19    22    23    1
    20    23    24    1
    21    24    25    1
    22    25    26    1
    23    26    27    1
    24    27    28    1
    25    28    29    1
    26    29    30   ar
    27    30    31   ar
    28    31    32   ar
    29    32    33   ar
    30    33    34   ar
    31    26    35    1
    32    35    36    1
    33     4     5   ar
    34    11    12   ar
    35    12    13   ar
    36    13     8   ar
    37     5     1   ar
    38    36    23    1
    39    34    26    1
    40    34    29   ar
@<TRIPOS>MOLECULE
*****
 36 40 0 0 0
SMALL
GASTEIGER

@<TRIPOS>ATOM
      1 C         142.4048  142.2870  158.3628 C.ar    1  UNL1        0.0504
      2 C         143.7281  142.3629  157.6605 C.ar    1  UNL1        0.0060
      3 C         144.7946  142.5433  158.6997 C.ar    1  UNL1        0.0038
      4 C         144.1305  142.5788  160.0442 C.ar    1  UNL1        0.0232
      5 S         142.6535  142.4205  159.8360 S.2     1  UNL1       -0.0906
      6 C         141.0675  142.1090  157.7070 C.3     1  UNL1        0.2384
      7 O         140.0596  141.1706  158.3015 O.3     1  UNL1       -0.4701
      8 C         138.6171  141.7944  162.5181 C.ar    1  UNL1       -0.0099
      9 C         139.5533  140.6651  162.2051 C.ar    1  UNL1       -0.0002
     10 C         140.0342  140.4571  160.7996 C.ar    1  UNL1        0.0366
     11 C         139.5788  141.3785  159.7071 C.ar    1  UNL1        0.1391
     12 C         138.6425  142.5079  160.0201 C.ar    1  UNL1        0.0366
     13 C         138.1616  142.7159  161.4256 C.ar    1  UNL1       -0.0002
     14 C         138.1362  142.0024  163.9236 C.3     1  UNL1        0.0917
     15 C         138.0721  138.5534  166.8133 C.3     1  UNL1        0.0900
     16 C         138.0934  139.7030  165.8501 C.1     1  UNL1       -0.0897
     17 C         138.1148  140.8528  164.8869 C.1     1  UNL1       -0.0872
     18 C         137.6767  143.3601  164.3660 C.3     1  UNL1        0.0591
     19 C         138.6834  144.4108  164.7303 C.2     1  UNL1        0.0517
     20 O         139.9507  144.5417  163.9387 O.co2   1  UNL1       -0.5491
     21 O         138.4227  145.3305  165.8861 O.co2   1  UNL1       -0.5491
     22 C         144.8220  142.7438  161.3650 C.3     1  UNL1        0.1057
     23 N         144.3248  142.0012  162.5698 N.3     1  UNL1       -0.2685
     24 C         143.2921  142.6243  163.4615 C.3     1  UNL1        0.0727
     25 C         142.7949  141.8818  164.6662 C.3     1  UNL1        0.0214
     26 C         143.3305  140.5161  164.9793 C.3     1  UNL1        0.0216
     27 C         143.7708  139.1506  165.4172 C.3     1  UNL1        0.0088
     28 C         143.0181  138.7992  166.6663 C.3     1  UNL1        0.0264
     29 C         142.1126  139.9476  167.0003 C.ar    1  UNL1       -0.0261
     30 C         141.1373  140.1641  168.1191 C.ar    1  UNL1       -0.0046
     31 C         140.3550  141.4416  168.1954 C.ar    1  UNL1       -0.0003
     32 C         140.5480  142.5027  167.1528 C.ar    1  UNL1       -0.0003
     33 C         141.5234  142.2862  166.0340 C.ar    1  UNL1       -0.0046
     34 C         142.3057  141.0086  165.9578 C.ar    1  UNL1       -0.0266
     35 C         144.3632  139.8929  164.0876 C.3     1  UNL1        0.0214
     36 C         144.8604  140.6355  162.8829 C.3     1  UNL1        0.0727
@<TRIPOS>UNITY_ATOM_ATTR
20 1
charge -1
@<TRIPOS>BOND
     1    15    16    1
     2    16    17    3
     3    14    17    1
     4    14    18    1
     5    18    19    1
     6    19    20   ar
     7    19    21   ar
     8    14     8    1
     9     8     9   ar
    10     9    10   ar
    11    10    11   ar
    12    11     7    1
    13     7     6    1
    14     6     1    1
    15     1     2   ar
    16     2     3   ar
    17     3     4   ar
    18     4    22    1
    19    22    23    1
    20    23    24    1
    21    24    25    1
    22    25    26    1
    23    26    27    1
    24    27    28    1
    25    28    29    1
    26    29    30   ar
    27    30    31   ar
    28    31    32   ar
    29    32    33   ar
    30    33    34   ar
    31    26    35    1
    32    35    36    1
    33     4     5   ar
    34    11    12   ar
    35    12    13   ar
    36    13     8   ar
    37     5     1   ar
    38    36    23    1
    39    34    26    1
    40    34    29   ar
@<TRIPOS>MOLECULE
*****
 36 40 0 0 0
SMALL
GASTEIGER

@<TRIPOS>ATOM
      1 C         143.5972  142.1239  158.9488 C.ar    1  UNL1        0.0504
      2 C         142.5331  143.0890  158.5172 C.ar    1  UNL1        0.0060
      3 C         142.1800  143.9470  159.6958 C.ar    1  UNL1        0.0038
      4 C         143.0260  143.5123  160.8557 C.ar    1  UNL1        0.0232
      5 S         143.9018  142.3855  160.3940 S.2     1  UNL1       -0.0906
      6 C         144.2433  141.0803  158.0864 C.3     1  UNL1        0.2384
      7 O         143.9218  139.6302  158.2956 O.3     1  UNL1       -0.4701
      8 C         142.0337  138.2772  162.1498 C.ar    1  UNL1       -0.0099
      9 C         141.1692  138.6862  160.9942 C.ar    1  UNL1       -0.0002
     10 C         141.7986  139.1372  159.7094 C.ar    1  UNL1        0.0366
     11 C         143.2924  139.1792  159.5803 C.ar    1  UNL1        0.1391
     12 C         144.1569  138.7703  160.7360 C.ar    1  UNL1        0.0366
     13 C         143.5276  138.3193  162.0207 C.ar    1  UNL1       -0.0002
     14 C         141.4044  137.8262  163.4345 C.3     1  UNL1        0.0917
     15 C         143.5734  138.4196  167.3324 C.3     1  UNL1        0.0900
     16 C         142.8504  138.2218  166.0331 C.1     1  UNL1       -0.0897
     17 C         142.1274  138.0240  164.7338 C.1     1  UNL1       -0.0872
     18 C         140.0520  137.1775  163.4200 C.3     1  UNL1        0.0591
     19 C         138.8705  137.8932  164.0045 C.2     1  UNL1        0.0517
     20 O         138.1707  138.9571  163.2118 O.co2   1  UNL1       -0.5491
     21 O         138.3887  137.5451  165.3817 O.co2   1  UNL1       -0.5491
     22 C         143.0005  144.1009  162.2351 C.3     1  UNL1        0.1057
     23 N         142.4093  143.3216  163.3724 N.3     1  UNL1       -0.2685
     24 C         143.0848  143.3199  164.7116 C.3     1  UNL1        0.0727
     25 C         142.4935  142.5406  165.8488 C.3     1  UNL1        0.0214
     26 C         141.2268  141.7631  165.6466 C.3     1  UNL1        0.0216
     27 C         139.9721  140.9426  165.5951 C.3     1  UNL1        0.0088
     28 C         139.7563  140.3398  166.9517 C.3     1  UNL1        0.0264
     29 C         140.8777  140.7878  167.8416 C.ar    1  UNL1       -0.0261
     30 C         141.1887  140.5084  169.2822 C.ar    1  UNL1       -0.0046
     31 C         142.4083  141.1086  169.9162 C.ar    1  UNL1       -0.0003
     32 C         143.3172  141.9882  169.1097 C.ar    1  UNL1       -0.0003
     33 C         143.0062  142.2676  167.6692 C.ar    1  UNL1       -0.0046
     34 C         141.7865  141.6674  167.0351 C.ar    1  UNL1       -0.0266
     35 C         140.5514  141.7647  164.3074 C.3     1  UNL1        0.0214
     36 C         141.1426  142.5440  163.1702 C.3     1  UNL1        0.0727
@<TRIPOS>UNITY_ATOM_ATTR
20 1
charge -1
@<TRIPOS>BOND
     1    15    16    1
     2    16    17    3
     3    14    17    1
     4    14    18    1
     5    18    19    1
     6    19    20   ar
     7    19    21   ar
     8    14     8    1
     9     8     9   ar
    10     9    10   ar
    11    10    11   ar
    12    11     7    1
    13     7     6    1
    14     6     1    1
    15     1     2   ar
    16     2     3   ar
    17     3     4   ar
    18     4    22    1
    19    22    23    1
    20    23    24    1
    21    24    25    1
    22    25    26    1
    23    26    27    1
    24    27    28    1
    25    28    29    1
    26    29    30   ar
    27    30    31   ar
    28    31    32   ar
    29    32    33   ar
    30    33    34   ar
    31    26    35    1
    32    35    36    1
    33     4     5   ar
    34    11    12   ar
    35    12    13   ar
    36    13     8   ar
    37     5     1   ar
    38    36    23    1
    39    34    26    1
    40    34    29   ar
@<TRIPOS>MOLECULE
*****
 36 40 0 0 0
SMALL
GASTEIGER

@<TRIPOS>ATOM
      1 C         138.7754  141.9911  159.0311 C.ar    1  UNL1        0.0504
      2 C         139.8460  142.8387  158.4102 C.ar    1  UNL1        0.0060
      3 C         140.2773  143.8567  159.4240 C.ar    1  UNL1        0.0038
      4 C         139.4732  143.6383  160.6713 C.ar    1  UNL1        0.0232
      5 S         138.5450  142.4853  160.4284 S.2     1  UNL1       -0.0906
      6 C         138.0606  140.8497  158.3705 C.3     1  UNL1        0.2384
      7 O         138.4972  139.4388  158.6329 O.3     1  UNL1       -0.4701
      8 C         139.6843  138.1867  162.7889 C.ar    1  UNL1       -0.0099
      9 C         140.7175  138.2610  161.7041 C.ar    1  UNL1       -0.0002
     10 C         140.3219  138.6784  160.3187 C.ar    1  UNL1        0.0366
     11 C         138.8929  139.0214  160.0182 C.ar    1  UNL1        0.1391
     12 C         137.8596  138.9471  161.1030 C.ar    1  UNL1        0.0366
     13 C         138.2552  138.5297  162.4884 C.ar    1  UNL1       -0.0002
     14 C         140.0799  137.7693  164.1743 C.3     1  UNL1        0.0917
     15 C         136.9985  137.6384  167.4511 C.3     1  UNL1        0.0900
     16 C         138.0256  137.6820  166.3589 C.1     1  UNL1       -0.0897
     17 C         139.0528  137.7256  165.2666 C.1     1  UNL1       -0.0872
     18 C         141.5028  137.3956  164.4674 C.3     1  UNL1        0.0591
     19 C         142.4570  138.4281  164.9903 C.2     1  UNL1        0.0517
     20 O         143.1273  138.2264  166.3169 O.co2   1  UNL1       -0.5491
     21 O         142.7408  139.6624  164.1865 O.co2   1  UNL1       -0.5491
     22 C         139.5787  144.4333  161.9388 C.3     1  UNL1        0.1057
     23 N         140.3232  143.8743  163.1150 N.3     1  UNL1       -0.2685
     24 C         139.6243  142.9648  164.0816 C.3     1  UNL1        0.0727
     25 C         140.3687  142.4058  165.2577 C.3     1  UNL1        0.0214
     26 C         141.8120  142.7563  165.4672 C.3     1  UNL1        0.0216
     27 C         143.2502  143.0163  165.8050 C.3     1  UNL1        0.0088
     28 C         143.5760  142.2598  167.0587 C.3     1  UNL1        0.0264
     29 C         142.3392  141.5323  167.4958 C.ar    1  UNL1       -0.0261
     30 C         142.0648  140.6300  168.6622 C.ar    1  UNL1       -0.0046
     31 C         140.7003  140.0347  168.8452 C.ar    1  UNL1       -0.0003
     32 C         139.6100  140.3415  167.8617 C.ar    1  UNL1       -0.0003
     33 C         139.8844  141.2437  166.6952 C.ar    1  UNL1       -0.0046
     34 C         141.2490  141.8391  166.5122 C.ar    1  UNL1       -0.0266
     35 C         142.5109  143.6658  164.5007 C.3     1  UNL1        0.0214
     36 C         141.7665  144.2248  163.3246 C.3     1  UNL1        0.0727
@<TRIPOS>UNITY_ATOM_ATTR
20 1
charge -1
@<TRIPOS>BOND
     1    15    16    1
     2    16    17    3
     3    14    17    1
     4    14    18    1
     5    18    19    1
     6    19    20   ar
     7    19    21   ar
     8    14     8    1
     9     8     9   ar
    10     9    10   ar
    11    10    11   ar
    12    11     7    1
    13     7     6    1
    14     6     1    1
    15     1     2   ar
    16     2     3   ar
    17     3     4   ar
    18     4    22    1
    19    22    23    1
    20    23    24    1
    21    24    25    1
    22    25    26    1
    23    26    27    1
    24    27    28    1
    25    28    29    1
    26    29    30   ar
    27    30    31   ar
    28    31    32   ar
    29    32    33   ar
    30    33    34   ar
    31    26    35    1
    32    35    36    1
    33     4     5   ar
    34    11    12   ar
    35    12    13   ar
    36    13     8   ar
    37     5     1   ar
    38    36    23    1
    39    34    26    1
    40    34    29   ar
