@<TRIPOS>MOLECULE
*****
 31 34 0 0 0
SMALL
GASTEIGER

@<TRIPOS>ATOM
      1 C         142.9262  143.7388  163.1572 C.3     1  UNL1        0.0401
      2 C         142.8879  142.3765  163.7838 C.3     1  UNL1        0.0595
      3 C         143.2510  141.1677  162.9733 C.3     1  UNL1        0.0174
      4 C         141.6835  141.9160  168.0950 C.3     1  UNL1        0.0905
      5 C         140.7006  141.6076  167.0047 C.3     1  UNL1        0.0400
      6 C         141.1021  141.7611  165.5677 C.3     1  UNL1        0.0740
      7 N         142.4864  142.2230  165.2209 N.3     1  UNL1       -0.2738
      8 C         143.4693  142.5314  166.3112 C.3     1  UNL1        0.0740
      9 C         143.0678  142.3779  167.7483 C.3     1  UNL1        0.0400
     10 C         142.0609  139.2345  169.9163 C.3     1  UNL1        0.0738
     11 C         141.4555  140.5300  170.3693 C.ar    1  UNL1        0.1433
     12 N         140.9173  140.8203  171.7390 N.ar    1  UNL1       -0.1337
     13 N         140.4111  142.2324  171.7484 N.ar    1  UNL1       -0.1337
     14 C         140.6365  142.8146  170.3845 C.ar    1  UNL1        0.1433
     15 C         140.2792  144.2049  169.9494 C.3     1  UNL1        0.0738
     16 N         141.2820  141.7625  169.5322 N.ar    1  UNL1       -0.3039
     17 C         141.7169  144.2725  162.4481 C.3     1  UNL1        0.0954
     18 C         140.3719  144.2112  163.1094 C.ar    1  UNL1       -0.0045
     19 C         139.2471  143.4662  162.4537 C.ar    1  UNL1       -0.0027
     20 C         137.9021  143.4049  163.1149 C.ar    1  UNL1       -0.0003
     21 C         137.6819  144.0887  164.4318 C.ar    1  UNL1       -0.0000
     22 C         138.8066  144.8337  165.0873 C.ar    1  UNL1       -0.0003
     23 C         140.1516  144.8949  164.4261 C.ar    1  UNL1       -0.0027
     24 N         141.8526  144.8674  161.0778 N.am    1  UNL1       -0.3022
     25 C         141.8042  143.9824  159.8678 C.2     1  UNL1        0.2222
     26 O         141.6201  142.5024  160.0279 O.2     1  UNL1       -0.2751
     27 H         141.9734  145.8388  160.9727 H       1  UNL1        0.1497
     28 C         141.9398  144.5774  158.4976 C.3     1  UNL1        0.0765
     29 C         142.5578  144.1335  157.2048 C.3     1  UNL1        0.0091
     30 C         142.1317  145.4188  156.5597 C.3     1  UNL1        0.0010
     31 C         141.5137  145.8628  157.8524 C.3     1  UNL1        0.0091
@<TRIPOS>BOND
     1    10    11    1
     2    11    12   ar
     3    12    13   ar
     4    13    14   ar
     5    14    15    1
     6    14    16   ar
     7    16     4    1
     8     4     5    1
     9     5     6    1
    10     6     7    1
    11     7     2    1
    12     2     3    1
    13     2     1    1
    14    17     1    1
    15    17    24    1
    16    24    25   am
    17    25    26    2
    18    25    28    1
    19    28    29    1
    20    29    30    1
    21    30    31    1
    22    17    18    1
    23    18    19   ar
    24    19    20   ar
    25    20    21   ar
    26    21    22   ar
    27    22    23   ar
    28     7     8    1
    29     8     9    1
    30    16    11   ar
    31     9     4    1
    32    31    28    1
    33    23    18   ar
    34    24    27    1
@<TRIPOS>MOLECULE
*****
 31 34 0 0 0
SMALL
GASTEIGER

@<TRIPOS>ATOM
      1 C         142.9416  143.3612  163.0520 C.3     1  UNL1        0.0401
      2 C         142.7728  142.0253  163.7129 C.3     1  UNL1        0.0595
      3 C         142.9781  140.7666  162.9233 C.3     1  UNL1        0.0174
      4 C         141.6503  141.7936  168.0645 C.3     1  UNL1        0.0905
      5 C         140.6699  141.3651  167.0132 C.3     1  UNL1        0.0400
      6 C         141.0441  141.4423  165.5628 C.3     1  UNL1        0.0740
      7 N         142.3987  141.9480  165.1635 N.3     1  UNL1       -0.2738
      8 C         143.3791  142.3765  166.2148 C.3     1  UNL1        0.0740
      9 C         143.0049  142.2993  167.6653 C.3     1  UNL1        0.0400
     10 C         140.2949  144.1833  169.8258 C.3     1  UNL1        0.0738
     11 C         140.6532  142.8148  170.3246 C.ar    1  UNL1        0.1433
     12 N         140.4513  142.3044  171.7206 N.ar    1  UNL1       -0.1337
     13 N         140.9496  140.8905  171.7739 N.ar    1  UNL1       -0.1337
     14 C         141.4593  140.5271  170.4108 C.ar    1  UNL1        0.1433
     15 C         142.0488  139.2063  170.0131 C.3     1  UNL1        0.0738
     16 N         141.2762  141.7164  169.5151 N.ar    1  UNL1       -0.3039
     17 C         141.7656  144.0329  162.4072 C.3     1  UNL1        0.0954
     18 C         140.4370  144.0497  163.1032 C.ar    1  UNL1       -0.0045
     19 C         139.2670  143.3274  162.5035 C.ar    1  UNL1       -0.0027
     20 C         137.9383  143.3441  163.1994 C.ar    1  UNL1       -0.0003
     21 C         137.7796  144.0832  164.4951 C.ar    1  UNL1       -0.0000
     22 C         138.9495  144.8055  165.0947 C.ar    1  UNL1       -0.0003
     23 C         140.2782  144.7887  164.3988 C.ar    1  UNL1       -0.0027
     24 N         141.9183  144.6879  161.0664 N.am    1  UNL1       -0.3022
     25 C         141.8445  143.8628  159.8159 C.2     1  UNL1        0.2222
     26 O         141.6181  142.3828  159.9062 O.2     1  UNL1       -0.2751
     27 H         142.0669  145.6593  161.0071 H       1  UNL1        0.1497
     28 C         141.9971  144.5178  158.4752 C.3     1  UNL1        0.0765
     29 C         141.7497  145.8943  157.9327 C.3     1  UNL1        0.0091
     30 C         142.2130  145.4442  156.5790 C.3     1  UNL1        0.0010
     31 C         142.4605  144.0677  157.1214 C.3     1  UNL1        0.0091
@<TRIPOS>BOND
     1    10    11    1
     2    11    12   ar
     3    12    13   ar
     4    13    14   ar
     5    14    15    1
     6    14    16   ar
     7    16     4    1
     8     4     5    1
     9     5     6    1
    10     6     7    1
    11     7     2    1
    12     2     3    1
    13     2     1    1
    14    17     1    1
    15    17    24    1
    16    24    25   am
    17    25    26    2
    18    25    28    1
    19    28    29    1
    20    29    30    1
    21    30    31    1
    22    17    18    1
    23    18    19   ar
    24    19    20   ar
    25    20    21   ar
    26    21    22   ar
    27    22    23   ar
    28     7     8    1
    29     8     9    1
    30    16    11   ar
    31     9     4    1
    32    31    28    1
    33    23    18   ar
    34    24    27    1
@<TRIPOS>MOLECULE
*****
 31 34 0 0 0
SMALL
GASTEIGER

@<TRIPOS>ATOM
      1 C         142.1467  138.6268  163.2274 C.3     1  UNL1        0.0401
      2 C         143.1852  139.3291  164.0508 C.3     1  UNL1        0.0595
      3 C         144.5721  139.5141  163.5101 C.3     1  UNL1        0.0174
      4 C         142.1403  140.8814  168.1433 C.3     1  UNL1        0.0905
      5 C         142.1482  141.8127  166.9674 C.3     1  UNL1        0.0400
      6 C         142.4965  141.2952  165.6033 C.3     1  UNL1        0.0740
      7 N         142.8369  139.8465  165.4150 N.3     1  UNL1       -0.2738
      8 C         142.8291  138.9153  166.5909 C.3     1  UNL1        0.0740
      9 C         142.4808  139.4328  167.9550 C.3     1  UNL1        0.0400
     10 C         139.2769  140.5072  169.6634 C.3     1  UNL1        0.0738
     11 C         140.4759  141.2268  170.2062 C.ar    1  UNL1        0.1433
     12 N         140.5691  141.9008  171.5430 N.ar    1  UNL1       -0.1337
     13 N         141.9430  142.4894  171.6705 N.ar    1  UNL1       -0.1337
     14 C         142.6987  142.1792  170.4125 C.ar    1  UNL1        0.1433
     15 C         144.1129  142.5791  170.1122 C.3     1  UNL1        0.0738
     16 N         141.7920  141.3989  169.5075 N.ar    1  UNL1       -0.3039
     17 C         140.7506  139.1708  163.1580 C.3     1  UNL1        0.0954
     18 C         139.7894  138.9154  164.2809 C.ar    1  UNL1       -0.0045
     19 C         139.1426  140.0675  164.9912 C.ar    1  UNL1       -0.0027
     20 C         138.1815  139.8121  166.1141 C.ar    1  UNL1       -0.0003
     21 C         137.8671  138.4046  166.5267 C.ar    1  UNL1       -0.0000
     22 C         138.5138  137.2526  165.8165 C.ar    1  UNL1       -0.0003
     23 C         139.4750  137.5080  164.6935 C.ar    1  UNL1       -0.0027
     24 N         140.3155  139.9703  161.9656 N.am    1  UNL1       -0.3022
     25 C         139.4585  139.3369  160.9101 C.2     1  UNL1        0.2222
     26 O         139.0364  137.9040  161.0468 O.2     1  UNL1       -0.2751
     27 H         140.5926  140.9107  161.8758 H       1  UNL1        0.1497
     28 C         139.0235  140.1364  159.7178 C.3     1  UNL1        0.0765
     29 C         138.9449  139.8822  158.2415 C.3     1  UNL1        0.0091
     30 C         138.4084  141.2670  158.0316 C.3     1  UNL1        0.0010
     31 C         138.4870  141.5213  159.5078 C.3     1  UNL1        0.0091
@<TRIPOS>BOND
     1    10    11    1
     2    11    12   ar
     3    12    13   ar
     4    13    14   ar
     5    14    15    1
     6    14    16   ar
     7    16     4    1
     8     4     5    1
     9     5     6    1
    10     6     7    1
    11     7     2    1
    12     2     3    1
    13     2     1    1
    14    17     1    1
    15    17    24    1
    16    24    25   am
    17    25    26    2
    18    25    28    1
    19    28    29    1
    20    29    30    1
    21    30    31    1
    22    17    18    1
    23    18    19   ar
    24    19    20   ar
    25    20    21   ar
    26    21    22   ar
    27    22    23   ar
    28     7     8    1
    29     8     9    1
    30    16    11   ar
    31     9     4    1
    32    31    28    1
    33    23    18   ar
    34    24    27    1
@<TRIPOS>MOLECULE
*****
 31 34 0 0 0
SMALL
GASTEIGER

@<TRIPOS>ATOM
      1 C         142.1579  140.6823  162.5633 C.3     1  UNL1        0.0401
      2 C         142.9757  140.0802  163.6672 C.3     1  UNL1        0.0595
      3 C         144.1067  139.1504  163.3413 C.3     1  UNL1        0.0174
      4 C         142.0360  141.0634  167.9568 C.3     1  UNL1        0.0905
      5 C         141.9749  142.1366  166.9106 C.3     1  UNL1        0.0400
      6 C         142.2882  141.8088  165.4808 C.3     1  UNL1        0.0740
      7 N         142.6625  140.4079  165.0971 N.3     1  UNL1       -0.2738
      8 C         142.7236  139.3347  166.1433 C.3     1  UNL1        0.0740
      9 C         142.4103  139.6624  167.5731 C.3     1  UNL1        0.0400
     10 C         144.0122  142.6011  170.0496 C.3     1  UNL1        0.0738
     11 C         142.6311  142.0979  170.3486 C.ar    1  UNL1        0.1433
     12 N         141.9159  142.2132  171.6621 N.ar    1  UNL1       -0.1337
     13 N         140.5655  141.5776  171.5119 N.ar    1  UNL1       -0.1337
     14 C         140.4461  141.0696  170.1056 C.ar    1  UNL1        0.1433
     15 C         139.2587  140.3638  169.5210 C.3     1  UNL1        0.0738
     16 N         141.7228  141.3911  169.3867 N.ar    1  UNL1       -0.3039
     17 C         140.7443  140.2306  162.3452 C.3     1  UNL1        0.0954
     18 C         140.2350  140.0064  160.9522 C.ar    1  UNL1       -0.0045
     19 C         139.4180  141.0652  160.2728 C.ar    1  UNL1       -0.0027
     20 C         138.9088  140.8409  158.8798 C.ar    1  UNL1       -0.0003
     21 C         139.2166  139.5579  158.1662 C.ar    1  UNL1       -0.0000
     22 C         140.0336  138.4992  158.8456 C.ar    1  UNL1       -0.0003
     23 C         140.5428  138.7234  160.2386 C.ar    1  UNL1       -0.0027
     24 N         139.8398  140.0032  163.5200 N.am    1  UNL1       -0.3022
     25 C         139.7143  138.6323  164.1157 C.2     1  UNL1        0.2222
     26 O         140.4933  137.4887  163.5365 O.2     1  UNL1       -0.2751
     27 H         139.3285  140.7537  163.9002 H       1  UNL1        0.1497
     28 C         138.8099  138.4049  165.2905 C.3     1  UNL1        0.0765
     29 C         138.1145  139.2912  166.2810 C.3     1  UNL1        0.0091
     30 C         137.5307  138.0834  166.9520 C.3     1  UNL1        0.0010
     31 C         138.2260  137.1971  165.9615 C.3     1  UNL1        0.0091
@<TRIPOS>BOND
     1    10    11    1
     2    11    12   ar
     3    12    13   ar
     4    13    14   ar
     5    14    15    1
     6    14    16   ar
     7    16     4    1
     8     4     5    1
     9     5     6    1
    10     6     7    1
    11     7     2    1
    12     2     3    1
    13     2     1    1
    14    17     1    1
    15    17    24    1
    16    24    25   am
    17    25    26    2
    18    25    28    1
    19    28    29    1
    20    29    30    1
    21    30    31    1
    22    17    18    1
    23    18    19   ar
    24    19    20   ar
    25    20    21   ar
    26    21    22   ar
    27    22    23   ar
    28     7     8    1
    29     8     9    1
    30    16    11   ar
    31     9     4    1
    32    31    28    1
    33    23    18   ar
    34    24    27    1
@<TRIPOS>MOLECULE
*****
 31 34 0 0 0
SMALL
GASTEIGER

@<TRIPOS>ATOM
      1 C         142.4599  138.6784  163.2251 C.3     1  UNL1        0.0401
      2 C         143.4115  139.4888  164.0545 C.3     1  UNL1        0.0595
      3 C         144.7700  139.8306  163.5183 C.3     1  UNL1        0.0174
      4 C         142.1905  140.8945  168.1512 C.3     1  UNL1        0.0905
      5 C         142.2555  141.8687  167.0125 C.3     1  UNL1        0.0400
      6 C         142.6625  141.4001  165.6469 C.3     1  UNL1        0.0740
      7 N         143.0045  139.9573  165.4201 N.3     1  UNL1       -0.2738
      8 C         142.9394  138.9832  166.5588 C.3     1  UNL1        0.0740
      9 C         142.5324  139.4517  167.9243 C.3     1  UNL1        0.0400
     10 C         144.0375  142.6173  170.2176 C.3     1  UNL1        0.0738
     11 C         142.6325  142.1550  170.4666 C.ar    1  UNL1        0.1433
     12 N         141.8297  142.4033  171.7091 N.ar    1  UNL1       -0.1337
     13 N         140.4846  141.7649  171.5273 N.ar    1  UNL1       -0.1337
     14 C         140.4560  141.1220  170.1723 C.ar    1  UNL1        0.1433
     15 C         139.3025  140.3701  169.5774 C.3     1  UNL1        0.0738
     16 N         141.7835  141.3631  169.5168 N.ar    1  UNL1       -0.3039
     17 C         141.0457  139.1422  163.0381 C.3     1  UNL1        0.0954
     18 C         140.0422  138.9511  164.1364 C.ar    1  UNL1       -0.0045
     19 C         139.3900  140.1429  164.7723 C.ar    1  UNL1       -0.0027
     20 C         138.3865  139.9518  165.8706 C.ar    1  UNL1       -0.0003
     21 C         138.0352  138.5688  166.3332 C.ar    1  UNL1       -0.0000
     22 C         138.6874  137.3770  165.6974 C.ar    1  UNL1       -0.0003
     23 C         139.6909  137.5681  164.5990 C.ar    1  UNL1       -0.0027
     24 N         140.6350  139.7972  161.7526 N.am    1  UNL1       -0.3022
     25 C         139.7830  139.0507  160.7693 C.2     1  UNL1        0.2222
     26 O         139.3417  137.6493  161.0714 O.2     1  UNL1       -0.2751
     27 H         140.9246  140.7170  161.5543 H       1  UNL1        0.1497
     28 C         139.3723  139.7057  159.4839 C.3     1  UNL1        0.0765
     29 C         139.8609  139.6595  158.0664 C.3     1  UNL1        0.0091
     30 C         138.7915  140.6320  157.6660 C.3     1  UNL1        0.0010
     31 C         138.3029  140.6783  159.0834 C.3     1  UNL1        0.0091
@<TRIPOS>BOND
     1    10    11    1
     2    11    12   ar
     3    12    13   ar
     4    13    14   ar
     5    14    15    1
     6    14    16   ar
     7    16     4    1
     8     4     5    1
     9     5     6    1
    10     6     7    1
    11     7     2    1
    12     2     3    1
    13     2     1    1
    14    17     1    1
    15    17    24    1
    16    24    25   am
    17    25    26    2
    18    25    28    1
    19    28    29    1
    20    29    30    1
    21    30    31    1
    22    17    18    1
    23    18    19   ar
    24    19    20   ar
    25    20    21   ar
    26    21    22   ar
    27    22    23   ar
    28     7     8    1
    29     8     9    1
    30    16    11   ar
    31     9     4    1
    32    31    28    1
    33    23    18   ar
    34    24    27    1
@<TRIPOS>MOLECULE
*****
 31 34 0 0 0
SMALL
GASTEIGER

@<TRIPOS>ATOM
      1 C         142.5735  140.5954  162.7881 C.3     1  UNL1        0.0401
      2 C         143.3692  140.0888  163.9544 C.3     1  UNL1        0.0595
      3 C         144.5819  139.2373  163.7217 C.3     1  UNL1        0.0174
      4 C         142.1182  141.1236  168.1513 C.3     1  UNL1        0.0905
      5 C         142.4825  139.7105  167.8041 C.3     1  UNL1        0.0400
      6 C         142.8995  139.3656  166.4052 C.3     1  UNL1        0.0740
      7 N         142.9522  140.4338  165.3534 N.3     1  UNL1       -0.2738
      8 C         142.5879  141.8468  165.7005 C.3     1  UNL1        0.0740
      9 C         142.1709  142.1917  167.0995 C.3     1  UNL1        0.0400
     10 C         139.2730  140.3509  169.5505 C.3     1  UNL1        0.0738
     11 C         140.3934  141.1134  170.1934 C.ar    1  UNL1        0.1433
     12 N         140.4028  141.6546  171.5923 N.ar    1  UNL1       -0.1337
     13 N         141.7163  142.3442  171.8138 N.ar    1  UNL1       -0.1337
     14 C         142.5188  142.2292  170.5518 C.ar    1  UNL1        0.1433
     15 C         143.8969  142.7785  170.3301 C.3     1  UNL1        0.0738
     16 N         141.7012  141.4685  169.5503 N.ar    1  UNL1       -0.3039
     17 C         141.2305  140.0017  162.4819 C.3     1  UNL1        0.0954
     18 C         140.9087  139.5543  161.0868 C.ar    1  UNL1       -0.0045
     19 C         142.0076  139.0987  160.1730 C.ar    1  UNL1       -0.0027
     20 C         141.6858  138.6513  158.7779 C.ar    1  UNL1       -0.0003
     21 C         140.2651  138.6595  158.2966 C.ar    1  UNL1       -0.0000
     22 C         139.1663  139.1150  159.2104 C.ar    1  UNL1       -0.0003
     23 C         139.4881  139.5624  160.6055 C.ar    1  UNL1       -0.0027
     24 N         140.2092  139.8553  163.5708 N.am    1  UNL1       -0.3022
     25 C         140.0353  138.5363  164.2635 C.2     1  UNL1        0.2222
     26 O         140.8826  137.3636  163.8674 O.2     1  UNL1       -0.2751
     27 H         139.6531  140.6249  163.8308 H       1  UNL1        0.1497
     28 C         139.0140  138.3899  165.3524 C.3     1  UNL1        0.0765
     29 C         138.3182  137.2326  166.0054 C.3     1  UNL1        0.0091
     30 C         137.5698  138.1830  166.8923 C.3     1  UNL1        0.0010
     31 C         138.2656  139.3403  166.2393 C.3     1  UNL1        0.0091
@<TRIPOS>BOND
     1    10    11    1
     2    11    12   ar
     3    12    13   ar
     4    13    14   ar
     5    14    15    1
     6    14    16   ar
     7    16     4    1
     8     4     5    1
     9     5     6    1
    10     6     7    1
    11     7     2    1
    12     2     3    1
    13     2     1    1
    14    17     1    1
    15    17    24    1
    16    24    25   am
    17    25    26    2
    18    25    28    1
    19    28    29    1
    20    29    30    1
    21    30    31    1
    22    17    18    1
    23    18    19   ar
    24    19    20   ar
    25    20    21   ar
    26    21    22   ar
    27    22    23   ar
    28     7     8    1
    29     8     9    1
    30    16    11   ar
    31     9     4    1
    32    31    28    1
    33    23    18   ar
    34    24    27    1
@<TRIPOS>MOLECULE
*****
 31 34 0 0 0
SMALL
GASTEIGER

@<TRIPOS>ATOM
      1 C         139.2817  140.1714  165.4002 C.3     1  UNL1        0.0401
      2 C         139.6666  139.0147  164.5262 C.3     1  UNL1        0.0595
      3 C         139.2257  137.6261  164.8827 C.3     1  UNL1        0.0174
      4 C         142.1443  139.7107  160.8348 C.3     1  UNL1        0.0905
      5 C         142.5771  138.6924  161.8475 C.3     1  UNL1        0.0400
      6 C         141.7512  138.4604  163.0780 C.3     1  UNL1        0.0740
      7 N         140.4925  139.2467  163.2957 N.3     1  UNL1       -0.2738
      8 C         140.0597  140.2650  162.2829 C.3     1  UNL1        0.0740
      9 C         140.8856  140.4970  161.0525 C.3     1  UNL1        0.0400
     10 C         142.2233  137.8014  158.1894 C.3     1  UNL1        0.0738
     11 C         143.0065  139.0651  158.3883 C.ar    1  UNL1        0.1433
     12 N         143.9635  139.6731  157.4063 N.ar    1  UNL1       -0.1337
     13 N         144.5187  140.9265  158.0152 N.ar    1  UNL1       -0.1337
     14 C         143.9048  141.0931  159.3737 C.ar    1  UNL1        0.1433
     15 C         144.1776  142.2134  160.3331 C.3     1  UNL1        0.0738
     16 N         142.9702  139.9427  159.6042 N.ar    1  UNL1       -0.3039
     17 C         140.3445  141.0015  166.0569 C.3     1  UNL1        0.0954
     18 C         140.1820  141.4363  167.4833 C.ar    1  UNL1       -0.0045
     19 C         140.5849  142.8211  167.8958 C.ar    1  UNL1       -0.0027
     20 C         140.4225  143.2559  169.3222 C.ar    1  UNL1       -0.0003
     21 C         139.8571  142.3058  170.3361 C.ar    1  UNL1       -0.0000
     22 C         139.4543  140.9211  169.9236 C.ar    1  UNL1       -0.0003
     23 C         139.6167  140.4863  168.4972 C.ar    1  UNL1       -0.0027
     24 N         141.5699  141.3968  165.2873 N.am    1  UNL1       -0.3022
     25 C         142.8729  140.6987  165.5415 C.2     1  UNL1        0.2222
     26 O         142.9506  139.6052  166.5654 O.2     1  UNL1       -0.2751
     27 H         141.5189  142.1145  164.6153 H       1  UNL1        0.1497
     28 C         144.0982  141.0940  164.7719 C.3     1  UNL1        0.0765
     29 C         144.7697  142.3940  164.4413 C.3     1  UNL1        0.0091
     30 C         145.8310  141.6531  163.6835 C.3     1  UNL1        0.0010
     31 C         145.1596  140.3531  164.0140 C.3     1  UNL1        0.0091
@<TRIPOS>BOND
     1    10    11    1
     2    11    12   ar
     3    12    13   ar
     4    13    14   ar
     5    14    15    1
     6    14    16   ar
     7    16     4    1
     8     4     5    1
     9     5     6    1
    10     6     7    1
    11     7     2    1
    12     2     3    1
    13     2     1    1
    14    17     1    1
    15    17    24    1
    16    24    25   am
    17    25    26    2
    18    25    28    1
    19    28    29    1
    20    29    30    1
    21    30    31    1
    22    17    18    1
    23    18    19   ar
    24    19    20   ar
    25    20    21   ar
    26    21    22   ar
    27    22    23   ar
    28     7     8    1
    29     8     9    1
    30    16    11   ar
    31     9     4    1
    32    31    28    1
    33    23    18   ar
    34    24    27    1
@<TRIPOS>MOLECULE
*****
 31 34 0 0 0
SMALL
GASTEIGER

@<TRIPOS>ATOM
      1 C         139.3057  140.1219  165.3704 C.3     1  UNL1        0.0401
      2 C         139.7030  138.9670  164.4995 C.3     1  UNL1        0.0595
      3 C         139.2798  137.5742  164.8617 C.3     1  UNL1        0.0174
      4 C         142.1642  139.6806  160.8005 C.3     1  UNL1        0.0905
      5 C         140.8996  140.4565  161.0211 C.3     1  UNL1        0.0400
      6 C         140.0792  140.2186  162.2541 C.3     1  UNL1        0.0740
      7 N         140.5234  139.2048  163.2665 N.3     1  UNL1       -0.2738
      8 C         141.7880  138.4289  163.0459 C.3     1  UNL1        0.0740
      9 C         142.6084  138.6668  161.8129 C.3     1  UNL1        0.0400
     10 C         144.1627  142.2083  160.2842 C.3     1  UNL1        0.0738
     11 C         143.9032  141.0803  159.3301 C.ar    1  UNL1        0.1433
     12 N         144.5168  140.9161  157.9713 N.ar    1  UNL1       -0.1337
     13 N         143.9774  139.6528  157.3687 N.ar    1  UNL1       -0.1337
     14 C         143.0305  139.0362  158.3552 C.ar    1  UNL1        0.1433
     15 C         142.2640  137.7612  158.1631 C.3     1  UNL1        0.0738
     16 N         142.9846  139.9185  159.5674 N.ar    1  UNL1       -0.3039
     17 C         140.3595  140.9628  166.0277 C.3     1  UNL1        0.0954
     18 C         140.1917  141.3961  167.4539 C.ar    1  UNL1       -0.0045
     19 C         140.6090  142.7746  167.8730 C.ar    1  UNL1       -0.0027
     20 C         140.4412  143.2079  169.2993 C.ar    1  UNL1       -0.0003
     21 C         139.8560  142.2627  170.3064 C.ar    1  UNL1       -0.0000
     22 C         139.4387  140.8842  169.8872 C.ar    1  UNL1       -0.0003
     23 C         139.6066  140.4509  168.4610 C.ar    1  UNL1       -0.0027
     24 N         141.5813  141.3706  165.2588 N.am    1  UNL1       -0.3022
     25 C         142.8938  140.6938  165.5223 C.2     1  UNL1        0.2222
     26 O         142.9845  139.6094  166.5546 O.2     1  UNL1       -0.2751
     27 H         141.5218  142.0824  164.5813 H       1  UNL1        0.1497
     28 C         144.1155  141.1016  164.7534 C.3     1  UNL1        0.0765
     29 C         144.7997  142.4043  164.4621 C.3     1  UNL1        0.0091
     30 C         145.8432  141.6782  163.6661 C.3     1  UNL1        0.0010
     31 C         145.1590  140.3755  163.9573 C.3     1  UNL1        0.0091
@<TRIPOS>BOND
     1    10    11    1
     2    11    12   ar
     3    12    13   ar
     4    13    14   ar
     5    14    15    1
     6    14    16   ar
     7    16     4    1
     8     4     5    1
     9     5     6    1
    10     6     7    1
    11     7     2    1
    12     2     3    1
    13     2     1    1
    14    17     1    1
    15    17    24    1
    16    24    25   am
    17    25    26    2
    18    25    28    1
    19    28    29    1
    20    29    30    1
    21    30    31    1
    22    17    18    1
    23    18    19   ar
    24    19    20   ar
    25    20    21   ar
    26    21    22   ar
    27    22    23   ar
    28     7     8    1
    29     8     9    1
    30    16    11   ar
    31     9     4    1
    32    31    28    1
    33    23    18   ar
    34    24    27    1
@<TRIPOS>MOLECULE
*****
 31 34 0 0 0
SMALL
GASTEIGER

@<TRIPOS>ATOM
      1 C         141.4408  138.9298  165.6808 C.3     1  UNL1        0.0401
      2 C         142.6841  139.4227  165.0017 C.3     1  UNL1        0.0595
      3 C         144.0267  138.9095  165.4306 C.3     1  UNL1        0.0174
      4 C         142.3861  142.4411  161.6775 C.3     1  UNL1        0.0905
      5 C         143.3818  142.6376  162.7819 C.3     1  UNL1        0.0400
      6 C         143.4811  141.6315  163.8900 C.3     1  UNL1        0.0740
      7 N         142.5847  140.4288  163.8936 N.3     1  UNL1       -0.2738
      8 C         141.5890  140.2323  162.7891 C.3     1  UNL1        0.0740
      9 C         141.4896  141.2384  161.6811 C.3     1  UNL1        0.0400
     10 C         140.7156  145.2429  161.7745 C.3     1  UNL1        0.0738
     11 C         141.5189  144.7351  160.6140 C.ar    1  UNL1        0.1433
     12 N         141.6954  145.4259  159.2943 N.ar    1  UNL1       -0.1337
     13 N         142.5724  144.5651  158.4341 N.ar    1  UNL1       -0.1337
     14 C         142.9378  143.3422  159.2221 C.ar    1  UNL1        0.1433
     15 C         143.8025  142.2126  158.7464 C.3     1  UNL1        0.0738
     16 N         142.2867  143.4473  160.5694 N.ar    1  UNL1       -0.3039
     17 C         140.5230  139.9011  166.3621 C.3     1  UNL1        0.0954
     18 C         140.5262  140.0133  167.8579 C.ar    1  UNL1       -0.0045
     19 C         141.8225  139.9616  168.6111 C.ar    1  UNL1       -0.0027
     20 C         141.8257  140.0738  170.1069 C.ar    1  UNL1       -0.0003
     21 C         140.5327  140.2377  170.8495 C.ar    1  UNL1       -0.0000
     22 C         139.2366  140.2893  170.0963 C.ar    1  UNL1       -0.0003
     23 C         139.2333  140.1772  168.6005 C.ar    1  UNL1       -0.0027
     24 N         139.6018  140.7603  165.5476 N.am    1  UNL1       -0.3022
     25 C         139.8561  142.2341  165.4335 C.2     1  UNL1        0.2222
     26 O         141.0315  142.8489  166.1339 O.2     1  UNL1       -0.2751
     27 H         138.8304  140.3568  165.0878 H       1  UNL1        0.1497
     28 C         138.9350  143.0932  164.6189 C.3     1  UNL1        0.0765
     29 C         138.1632  142.9106  163.3458 C.3     1  UNL1        0.0091
     30 C         137.6324  144.3082  163.4670 C.3     1  UNL1        0.0010
     31 C         138.4042  144.4909  164.7402 C.3     1  UNL1        0.0091
@<TRIPOS>BOND
     1    10    11    1
     2    11    12   ar
     3    12    13   ar
     4    13    14   ar
     5    14    15    1
     6    14    16   ar
     7    16     4    1
     8     4     5    1
     9     5     6    1
    10     6     7    1
    11     7     2    1
    12     2     3    1
    13     2     1    1
    14    17     1    1
    15    17    24    1
    16    24    25   am
    17    25    26    2
    18    25    28    1
    19    28    29    1
    20    29    30    1
    21    30    31    1
    22    17    18    1
    23    18    19   ar
    24    19    20   ar
    25    20    21   ar
    26    21    22   ar
    27    22    23   ar
    28     7     8    1
    29     8     9    1
    30    16    11   ar
    31     9     4    1
    32    31    28    1
    33    23    18   ar
    34    24    27    1
