@<TRIPOS>MOLECULE
*****
 33 37 0 0 0
SMALL
GASTEIGER

@<TRIPOS>ATOM
      1 C         140.0848  140.7694  170.2311 C.3     1  UNL1        0.0438
      2 C         140.4620  141.4029  168.9247 C.3     1  UNL1        0.1398
      3 C         141.2242  142.2828  169.8706 C.3     1  UNL1        0.0438
      4 O         141.1038  142.3421  167.9469 O.3     1  UNL1       -0.4826
      5 C         140.8525  142.1813  166.4769 C.ar    1  UNL1        0.1361
      6 C         141.4944  143.1204  165.4992 C.ar    1  UNL1        0.0379
      7 C         141.2431  142.9596  164.0292 C.ar    1  UNL1        0.0178
      8 C         140.3498  141.8597  163.5369 C.ar    1  UNL1        0.0505
      9 C         139.7079  140.9206  164.5146 C.ar    1  UNL1        0.0153
     10 C         139.9593  141.0814  165.9847 C.ar    1  UNL1        0.0369
     11 C         139.3174  140.1423  166.9625 C.3     1  UNL1        0.1581
     12 C         138.9748  139.8592  165.5297 C.3     1  UNL1        0.2351
     13 O         138.0555  138.6742  165.4983 O.2     1  UNL1       -0.4478
     14 C         137.8301  138.2249  166.9115 C.2     1  UNL1        0.2770
     15 N         136.9749  137.0709  167.3440 N.pl3   1  UNL1       -0.3133
     16 N         138.6100  139.1322  167.8164 N.2     1  UNL1       -0.2202
     17 C         139.5688  140.3030  168.4325 C.3     1  UNL1        0.1141
     18 C         139.7478  140.5650  168.1597 C.3     1  UNL1        0.1501
     19 O         139.5596  140.2896  168.4464 O.3     1  UNL1       -0.3532
     20 C         139.7478  140.5650  168.1597 C.3     1  UNL1        0.1501
     21 H         136.4996  136.5314  166.6715 H       1  UNL1        0.1466
     22 H         136.8890  136.8531  168.3002 H       1  UNL1        0.1466
     23 N         140.0985  141.6989  162.0669 N.am    1  UNL1       -0.2791
     24 C         138.8528  142.2656  161.4525 C.2     1  UNL1        0.2672
     25 O         137.8586  142.9930  162.3083 O.2     1  UNL1       -0.2682
     26 H         140.7510  141.2215  161.5052 H       1  UNL1        0.1552
     27 C         138.6015  142.1048  159.9825 C.ar    1  UNL1        0.1348
     28 C         138.1017  140.7964  159.4458 C.ar    1  UNL1        0.0246
     29 C         137.8504  140.6355  157.9758 C.ar    1  UNL1        0.0147
     30 C         138.0988  141.7832  157.0425 C.ar    1  UNL1        0.0768
     31 CL        137.8475  141.6225  155.5725 Cl      1  UNL1       -0.0806
     32 C         138.5986  143.0918  157.5792 C.ar    1  UNL1        0.1103
     33 N         138.8499  143.2525  159.0492 N.ar    1  UNL1       -0.2384
@<TRIPOS>BOND
     1     1     2    1
     2     2     3    1
     3     2     4    1
     4     4     5    1
     5     5     6   ar
     6     6     7   ar
     7     7     8   ar
     8     8    23    1
     9    23    24   am
    10    24    25    2
    11    24    27    1
    12    27    28   ar
    13    28    29   ar
    14    29    30   ar
    15    30    31    1
    16    30    32   ar
    17    32    33   ar
    18     8     9   ar
    19     9    10   ar
    20    10    11    1
    21    11    12    1
    22    12    13    1
    23    13    14    1
    24    14    15    1
    25    14    16    2
    26    11    17    1
    27    17    18    1
    28    18    19    1
    29    19    20    1
    30    17     2    1
    31    10     5   ar
    32    16    11    1
    33    20    17    1
    34    33    27   ar
    35    23    26    1
    36    15    21    1
    37    15    22    1
@<TRIPOS>MOLECULE
*****
 33 37 0 0 0
SMALL
GASTEIGER

@<TRIPOS>ATOM
      1 C         140.0820  141.0534  170.3211 C.3     1  UNL1        0.0438
      2 C         140.6975  141.3458  168.9848 C.3     1  UNL1        0.1398
      3 C         141.5229  142.2469  169.8546 C.3     1  UNL1        0.0438
      4 O         141.5998  141.9511  167.9506 O.3     1  UNL1       -0.4826
      5 C         141.4628  141.5537  166.5107 C.ar    1  UNL1        0.1361
      6 C         142.3650  142.1590  165.4765 C.ar    1  UNL1        0.0379
      7 C         142.2281  141.7616  164.0366 C.ar    1  UNL1        0.0178
      8 C         141.1889  140.7589  163.6309 C.ar    1  UNL1        0.0505
      9 C         140.2867  140.1535  164.6651 C.ar    1  UNL1        0.0153
     10 C         140.4236  140.5510  166.1050 C.ar    1  UNL1        0.0369
     11 C         139.5214  139.9457  167.1392 C.3     1  UNL1        0.1581
     12 C         139.2680  139.4533  165.7451 C.3     1  UNL1        0.2351
     13 O         138.1431  138.4625  165.8007 O.2     1  UNL1       -0.4478
     14 C         137.7013  138.3425  167.2291 C.2     1  UNL1        0.2770
     15 N         136.6009  137.4607  167.7405 N.pl3   1  UNL1       -0.3133
     16 N         138.5531  139.2591  168.0564 N.2     1  UNL1       -0.2202
     17 C         139.6584  140.3430  168.5791 C.3     1  UNL1        0.1141
     18 C         139.9101  140.5119  168.2906 C.3     1  UNL1        0.1501
     19 O         139.6455  140.3344  168.5939 O.3     1  UNL1       -0.3532
     20 C         139.9101  140.5119  168.2906 C.3     1  UNL1        0.1501
     21 H         136.0957  136.8915  167.1159 H       1  UNL1        0.1466
     22 H         136.3838  137.4512  168.7007 H       1  UNL1        0.1466
     23 N         141.0519  140.3615  162.1910 N.am    1  UNL1       -0.2791
     24 C         141.5770  139.0356  161.7257 C.2     1  UNL1        0.2672
     25 O         142.2391  138.1072  162.7002 O.2     1  UNL1       -0.2682
     26 H         140.6174  140.9708  161.5514 H       1  UNL1        0.1552
     27 C         141.4401  138.6382  160.2858 C.ar    1  UNL1        0.1348
     28 C         140.1031  138.7157  159.6103 C.ar    1  UNL1        0.0246
     29 C         139.9661  138.3183  158.1704 C.ar    1  UNL1        0.0147
     30 C         141.1661  137.8434  157.4060 C.ar    1  UNL1        0.0768
     31 CL        141.0292  137.4460  155.9661 Cl      1  UNL1       -0.0806
     32 C         142.5032  137.7660  158.0815 C.ar    1  UNL1        0.1103
     33 N         142.6402  138.1634  159.5214 N.ar    1  UNL1       -0.2384
@<TRIPOS>BOND
     1     1     2    1
     2     2     3    1
     3     2     4    1
     4     4     5    1
     5     5     6   ar
     6     6     7   ar
     7     7     8   ar
     8     8    23    1
     9    23    24   am
    10    24    25    2
    11    24    27    1
    12    27    28   ar
    13    28    29   ar
    14    29    30   ar
    15    30    31    1
    16    30    32   ar
    17    32    33   ar
    18     8     9   ar
    19     9    10   ar
    20    10    11    1
    21    11    12    1
    22    12    13    1
    23    13    14    1
    24    14    15    1
    25    14    16    2
    26    11    17    1
    27    17    18    1
    28    18    19    1
    29    19    20    1
    30    17     2    1
    31    10     5   ar
    32    16    11    1
    33    20    17    1
    34    33    27   ar
    35    23    26    1
    36    15    21    1
    37    15    22    1
@<TRIPOS>MOLECULE
*****
 33 37 0 0 0
SMALL
GASTEIGER

@<TRIPOS>ATOM
      1 C         142.2312  141.8602  167.3951 C.3     1  UNL1        0.0438
      2 C         141.4070  142.6662  166.4351 C.3     1  UNL1        0.1398
      3 C         140.4516  142.5773  167.5880 C.3     1  UNL1        0.0438
      4 O         140.2510  143.4412  165.8757 O.3     1  UNL1       -0.4826
      5 C         140.3368  144.0252  164.4967 C.ar    1  UNL1        0.1361
      6 C         139.1808  144.8003  163.9372 C.ar    1  UNL1        0.0379
      7 C         139.2665  145.3842  162.5583 C.ar    1  UNL1        0.0178
      8 C         140.5083  145.1932  161.7387 C.ar    1  UNL1        0.0505
      9 C         141.6642  144.4181  162.2982 C.ar    1  UNL1        0.0153
     10 C         141.5785  143.8341  163.6772 C.ar    1  UNL1        0.0369
     11 C         142.7344  143.0590  164.2367 C.3     1  UNL1        0.1581
     12 C         142.9644  143.5815  162.8495 C.3     1  UNL1        0.2351
     13 O         144.3364  143.1573  162.4159 O.2     1  UNL1       -0.4478
     14 C         144.9543  142.3726  163.5351 C.2     1  UNL1        0.2770
     15 N         146.3220  141.7569  163.5299 N.pl3   1  UNL1       -0.3133
     16 N         143.9642  142.3119  164.6604 N.2     1  UNL1       -0.2202
     17 C         142.6487  142.4751  165.6156 C.3     1  UNL1        0.1141
     18 C         142.3262  142.6913  165.4595 C.3     1  UNL1        0.1501
     19 O         142.6652  142.4640  165.6236 O.3     1  UNL1       -0.3532
     20 C         142.3262  142.6913  165.4595 C.3     1  UNL1        0.1501
     21 H         146.9016  141.8517  162.7397 H       1  UNL1        0.1466
     22 H         146.6402  141.2578  164.3166 H       1  UNL1        0.1466
     23 N         140.5940  145.7771  160.3597 N.am    1  UNL1       -0.2791
     24 C         140.2773  144.9278  159.1645 C.2     1  UNL1        0.2672
     25 O         139.8749  143.4945  159.3484 O.2     1  UNL1       -0.2682
     26 H         140.8581  146.7178  160.2391 H       1  UNL1        0.1552
     27 C         140.3630  145.5118  157.7856 C.ar    1  UNL1        0.1348
     28 C         139.4702  146.6530  157.3976 C.ar    1  UNL1        0.0246
     29 C         139.5559  147.2370  156.0186 C.ar    1  UNL1        0.0147
     30 C         140.5344  146.6798  155.0276 C.ar    1  UNL1        0.0768
     31 CL        140.6201  147.2638  153.6486 Cl      1  UNL1       -0.0806
     32 C         141.4272  145.5385  155.4156 C.ar    1  UNL1        0.1103
     33 N         141.3415  144.9545  156.7946 N.ar    1  UNL1       -0.2384
@<TRIPOS>BOND
     1     1     2    1
     2     2     3    1
     3     2     4    1
     4     4     5    1
     5     5     6   ar
     6     6     7   ar
     7     7     8   ar
     8     8    23    1
     9    23    24   am
    10    24    25    2
    11    24    27    1
    12    27    28   ar
    13    28    29   ar
    14    29    30   ar
    15    30    31    1
    16    30    32   ar
    17    32    33   ar
    18     8     9   ar
    19     9    10   ar
    20    10    11    1
    21    11    12    1
    22    12    13    1
    23    13    14    1
    24    14    15    1
    25    14    16    2
    26    11    17    1
    27    17    18    1
    28    18    19    1
    29    19    20    1
    30    17     2    1
    31    10     5   ar
    32    16    11    1
    33    20    17    1
    34    33    27   ar
    35    23    26    1
    36    15    21    1
    37    15    22    1
@<TRIPOS>MOLECULE
*****
 33 37 0 0 0
SMALL
GASTEIGER

@<TRIPOS>ATOM
      1 C         141.5833  140.0023  170.4897 C.3     1  UNL1        0.0438
      2 C         142.1236  140.7129  169.2841 C.3     1  UNL1        0.1398
      3 C         143.1785  141.0671  170.2899 C.3     1  UNL1        0.0438
      4 O         143.0304  141.5464  168.4279 O.3     1  UNL1       -0.4826
      5 C         142.6945  141.7789  166.9846 C.ar    1  UNL1        0.1361
      6 C         143.6012  142.6125  166.1284 C.ar    1  UNL1        0.0379
      7 C         143.2653  142.8450  164.6852 C.ar    1  UNL1        0.0178
      8 C         142.0227  142.2440  164.0980 C.ar    1  UNL1        0.0505
      9 C         141.1160  141.4105  164.9542 C.ar    1  UNL1        0.0153
     10 C         141.4519  141.1779  166.3975 C.ar    1  UNL1        0.0369
     11 C         140.5452  140.3444  167.2537 C.3     1  UNL1        0.1581
     12 C         140.0813  140.4891  165.8345 C.3     1  UNL1        0.2351
     13 O         138.7976  139.7272  165.6865 O.2     1  UNL1       -0.4478
     14 C         138.4681  139.1118  167.0140 C.2     1  UNL1        0.2770
     15 N         137.2691  138.2638  167.3194 N.pl3   1  UNL1       -0.3133
     16 N         139.5481  139.4932  167.9827 N.2     1  UNL1       -0.2202
     17 C         140.8810  140.1119  168.6970 C.3     1  UNL1        0.1141
     18 C         141.1340  140.3444  168.4581 C.3     1  UNL1        0.1501
     19 O         140.8681  140.1000  168.7092 O.3     1  UNL1       -0.3532
     20 C         141.1340  140.3444  168.4581 C.3     1  UNL1        0.1501
     21 H         136.6120  138.0677  166.6130 H       1  UNL1        0.1466
     22 H         137.1392  137.9033  168.2263 H       1  UNL1        0.1466
     23 N         141.6868  142.4765  162.6547 N.am    1  UNL1       -0.2791
     24 C         141.1626  143.8105  162.2121 C.2     1  UNL1        0.2672
     25 O         140.9743  144.9119  163.2129 O.2     1  UNL1       -0.2682
     26 H         141.8104  141.7536  161.9979 H       1  UNL1        0.1552
     27 C         140.8267  144.0430  160.7689 C.ar    1  UNL1        0.1348
     28 C         139.7463  143.2369  160.1110 C.ar    1  UNL1        0.0246
     29 C         139.4104  143.4694  158.6677 C.ar    1  UNL1        0.0147
     30 C         140.1549  144.5081  157.8823 C.ar    1  UNL1        0.0768
     31 CL        139.8191  144.7406  156.4390 Cl      1  UNL1       -0.0806
     32 C         141.2354  145.3142  158.5402 C.ar    1  UNL1        0.1103
     33 N         141.5713  145.0817  159.9835 N.ar    1  UNL1       -0.2384
@<TRIPOS>BOND
     1     1     2    1
     2     2     3    1
     3     2     4    1
     4     4     5    1
     5     5     6   ar
     6     6     7   ar
     7     7     8   ar
     8     8    23    1
     9    23    24   am
    10    24    25    2
    11    24    27    1
    12    27    28   ar
    13    28    29   ar
    14    29    30   ar
    15    30    31    1
    16    30    32   ar
    17    32    33   ar
    18     8     9   ar
    19     9    10   ar
    20    10    11    1
    21    11    12    1
    22    12    13    1
    23    13    14    1
    24    14    15    1
    25    14    16    2
    26    11    17    1
    27    17    18    1
    28    18    19    1
    29    19    20    1
    30    17     2    1
    31    10     5   ar
    32    16    11    1
    33    20    17    1
    34    33    27   ar
    35    23    26    1
    36    15    21    1
    37    15    22    1
@<TRIPOS>MOLECULE
*****
 33 37 0 0 0
SMALL
GASTEIGER

@<TRIPOS>ATOM
      1 C         139.7721  140.1344  167.2155 C.3     1  UNL1        0.0438
      2 C         139.9381  141.3872  166.4072 C.3     1  UNL1        0.1398
      3 C         140.2905  141.9073  167.7693 C.3     1  UNL1        0.0438
      4 O         140.2266  142.8205  166.0721 O.3     1  UNL1       -0.4826
      5 C         140.1050  143.2986  164.6556 C.ar    1  UNL1        0.1361
      6 C         140.3934  144.7320  164.3204 C.ar    1  UNL1        0.0379
      7 C         140.2718  145.2101  162.9039 C.ar    1  UNL1        0.0178
      8 C         139.8618  144.2549  161.8224 C.ar    1  UNL1        0.0505
      9 C         139.5733  142.8215  162.1576 C.ar    1  UNL1        0.0153
     10 C         139.6949  142.3434  163.5742 C.ar    1  UNL1        0.0369
     11 C         139.4065  140.9101  163.9093 C.3     1  UNL1        0.1581
     12 C         139.2434  141.2414  162.4554 C.3     1  UNL1        0.2351
     13 O         138.8236  139.9919  161.7395 O.2     1  UNL1       -0.4478
     14 C         138.7273  138.8883  162.7509 C.2     1  UNL1        0.2770
     15 N         138.3390  137.4669  162.4704 N.pl3   1  UNL1       -0.3133
     16 N         139.0875  139.4558  164.0919 N.2     1  UNL1       -0.2202
     17 C         139.5281  140.4320  165.3259 C.3     1  UNL1        0.1141
     18 C         139.6086  140.8319  165.2324 C.3     1  UNL1        0.1501
     19 O         139.5240  140.4115  165.3306 O.3     1  UNL1       -0.3532
     20 C         139.6086  140.8319  165.2324 C.3     1  UNL1        0.1501
     21 H         138.1188  137.1887  161.5521 H       1  UNL1        0.1466
     22 H         138.3042  136.8120  163.2048 H       1  UNL1        0.1466
     23 N         139.7402  144.7330  160.4059 N.am    1  UNL1       -0.2791
     24 C         140.9734  144.9623  159.5832 C.2     1  UNL1        0.2672
     25 O         142.3281  144.7134  160.1771 O.2     1  UNL1       -0.2682
     26 H         138.8510  144.8964  160.0161 H       1  UNL1        0.1552
     27 C         140.8518  145.4404  158.1667 C.ar    1  UNL1        0.1348
     28 C         141.7947  144.9281  157.1187 C.ar    1  UNL1        0.0246
     29 C         141.6731  145.4062  155.7021 C.ar    1  UNL1        0.0147
     30 C         140.6086  146.3967  155.3336 C.ar    1  UNL1        0.0768
     31 CL        140.4870  146.8748  153.9171 Cl      1  UNL1       -0.0806
     32 C         139.6657  146.9090  156.3817 C.ar    1  UNL1        0.1103
     33 N         139.7873  146.4309  157.7982 N.ar    1  UNL1       -0.2384
@<TRIPOS>BOND
     1     1     2    1
     2     2     3    1
     3     2     4    1
     4     4     5    1
     5     5     6   ar
     6     6     7   ar
     7     7     8   ar
     8     8    23    1
     9    23    24   am
    10    24    25    2
    11    24    27    1
    12    27    28   ar
    13    28    29   ar
    14    29    30   ar
    15    30    31    1
    16    30    32   ar
    17    32    33   ar
    18     8     9   ar
    19     9    10   ar
    20    10    11    1
    21    11    12    1
    22    12    13    1
    23    13    14    1
    24    14    15    1
    25    14    16    2
    26    11    17    1
    27    17    18    1
    28    18    19    1
    29    19    20    1
    30    17     2    1
    31    10     5   ar
    32    16    11    1
    33    20    17    1
    34    33    27   ar
    35    23    26    1
    36    15    21    1
    37    15    22    1
@<TRIPOS>MOLECULE
*****
 33 37 0 0 0
SMALL
GASTEIGER

@<TRIPOS>ATOM
      1 C         140.0492  141.5262  169.9156 C.3     1  UNL1        0.0438
      2 C         139.6195  140.5857  168.8288 C.3     1  UNL1        0.1398
      3 C         138.5936  140.2621  169.8742 C.3     1  UNL1        0.0438
      4 O         138.8335  139.5328  168.1052 O.3     1  UNL1       -0.4826
      5 C         139.2225  139.1302  166.7136 C.ar    1  UNL1        0.1361
      6 C         138.4365  138.0773  165.9900 C.ar    1  UNL1        0.0379
      7 C         138.8256  137.6747  164.5985 C.ar    1  UNL1        0.0178
      8 C         140.0008  138.3249  163.9305 C.ar    1  UNL1        0.0505
      9 C         140.7868  139.3778  164.6541 C.ar    1  UNL1        0.0153
     10 C         140.3977  139.7804  166.0457 C.ar    1  UNL1        0.0369
     11 C         141.1837  140.8333  166.7693 C.3     1  UNL1        0.1581
     12 C         141.6891  140.5356  165.3887 C.3     1  UNL1        0.2351
     13 O         142.8776  141.4138  165.1308 O.2     1  UNL1       -0.4478
     14 C         143.1068  142.2541  166.3520 C.2     1  UNL1        0.2770
     15 N         144.1922  143.2741  166.5294 N.pl3   1  UNL1       -0.3133
     16 N         142.0599  141.8953  167.3647 N.2     1  UNL1       -0.2202
     17 C         140.7946  141.2359  168.1609 C.3     1  UNL1        0.1141
     18 C         140.5753  140.9421  167.9590 C.3     1  UNL1        0.1501
     19 O         140.8059  141.2509  168.1712 O.3     1  UNL1       -0.3532
     20 C         140.5753  140.9421  167.9590 C.3     1  UNL1        0.1501
     21 H         144.8356  143.4396  165.8029 H       1  UNL1        0.1466
     22 H         144.2612  143.7780  167.3723 H       1  UNL1        0.1466
     23 N         140.3899  137.9223  162.5389 N.am    1  UNL1       -0.2791
     24 C         140.3245  138.9224  161.4228 C.2     1  UNL1        0.2672
     25 O         139.8701  140.3251  161.6983 O.2     1  UNL1       -0.2682
     26 H         140.6882  137.0017  162.3581 H       1  UNL1        0.1552
     27 C         140.7136  138.5198  160.0313 C.ar    1  UNL1        0.1348
     28 C         139.6848  138.5039  158.9398 C.ar    1  UNL1        0.0246
     29 C         140.0739  138.1012  157.5482 C.ar    1  UNL1        0.0147
     30 C         141.4918  137.7145  157.2481 C.ar    1  UNL1        0.0768
     31 CL        141.8809  137.3119  155.8565 Cl      1  UNL1       -0.0806
     32 C         142.5206  137.7304  158.3396 C.ar    1  UNL1        0.1103
     33 N         142.1315  138.1330  159.7312 N.ar    1  UNL1       -0.2384
@<TRIPOS>BOND
     1     1     2    1
     2     2     3    1
     3     2     4    1
     4     4     5    1
     5     5     6   ar
     6     6     7   ar
     7     7     8   ar
     8     8    23    1
     9    23    24   am
    10    24    25    2
    11    24    27    1
    12    27    28   ar
    13    28    29   ar
    14    29    30   ar
    15    30    31    1
    16    30    32   ar
    17    32    33   ar
    18     8     9   ar
    19     9    10   ar
    20    10    11    1
    21    11    12    1
    22    12    13    1
    23    13    14    1
    24    14    15    1
    25    14    16    2
    26    11    17    1
    27    17    18    1
    28    18    19    1
    29    19    20    1
    30    17     2    1
    31    10     5   ar
    32    16    11    1
    33    20    17    1
    34    33    27   ar
    35    23    26    1
    36    15    21    1
    37    15    22    1
@<TRIPOS>MOLECULE
*****
 33 37 0 0 0
SMALL
GASTEIGER

@<TRIPOS>ATOM
      1 C         137.6908  143.1242  164.5555 C.3     1  UNL1        0.0438
      2 C         137.9092  142.8913  163.0898 C.3     1  UNL1        0.1398
      3 C         137.6263  144.3643  163.0803 C.3     1  UNL1        0.0438
      4 O         138.0294  143.1701  161.6208 O.3     1  UNL1       -0.4826
      5 C         138.3565  142.0567  160.6704 C.ar    1  UNL1        0.1361
      6 C         138.4767  142.3354  159.2015 C.ar    1  UNL1        0.0379
      7 C         138.8038  141.2220  158.2511 C.ar    1  UNL1        0.0178
      8 C         139.0108  139.8298  158.7697 C.ar    1  UNL1        0.0505
      9 C         138.8907  139.5510  160.2386 C.ar    1  UNL1        0.0153
     10 C         138.5635  140.6645  161.1890 C.ar    1  UNL1        0.0369
     11 C         138.4433  140.3857  162.6580 C.3     1  UNL1        0.1581
     12 C         138.7739  139.1775  161.8327 C.3     1  UNL1        0.2351
     13 O         138.8910  138.0023  162.7577 O.2     1  UNL1       -0.4478
     14 C         138.6327  138.4842  164.1544 C.2     1  UNL1        0.2770
     15 N         138.6484  137.6411  165.3950 N.pl3   1  UNL1       -0.3133
     16 N         138.3560  139.9573  164.0928 N.2     1  UNL1       -0.2202
     17 C         138.1162  141.4991  163.6084 C.3     1  UNL1        0.1141
     18 C         138.1497  141.5769  163.1985 C.3     1  UNL1        0.1501
     19 O         138.1145  141.4951  163.6293 O.3     1  UNL1       -0.3532
     20 C         138.1497  141.5769  163.1985 C.3     1  UNL1        0.1501
     21 H         138.8414  136.6777  165.3330 H       1  UNL1        0.1466
     22 H         138.4656  138.0512  166.2711 H       1  UNL1        0.1466
     23 N         139.3380  138.7164  157.8193 N.am    1  UNL1       -0.2791
     24 C         140.7667  138.3202  157.5915 C.2     1  UNL1        0.2672
     25 O         141.8682  139.0374  158.3141 O.2     1  UNL1       -0.2682
     26 H         138.6150  138.2456  157.3450 H       1  UNL1        0.1552
     27 C         141.0939  137.2068  156.6411 C.ar    1  UNL1        0.1348
     28 C         140.2551  136.9961  155.4155 C.ar    1  UNL1        0.0246
     29 C         140.5822  135.8827  154.4651 C.ar    1  UNL1        0.0147
     30 C         141.7481  134.9799  154.7403 C.ar    1  UNL1        0.0768
     31 CL        142.0753  133.8665  153.7899 Cl      1  UNL1       -0.0806
     32 C         142.5869  135.1906  155.9659 C.ar    1  UNL1        0.1103
     33 N         142.2597  136.3040  156.9163 N.ar    1  UNL1       -0.2384
@<TRIPOS>BOND
     1     1     2    1
     2     2     3    1
     3     2     4    1
     4     4     5    1
     5     5     6   ar
     6     6     7   ar
     7     7     8   ar
     8     8    23    1
     9    23    24   am
    10    24    25    2
    11    24    27    1
    12    27    28   ar
    13    28    29   ar
    14    29    30   ar
    15    30    31    1
    16    30    32   ar
    17    32    33   ar
    18     8     9   ar
    19     9    10   ar
    20    10    11    1
    21    11    12    1
    22    12    13    1
    23    13    14    1
    24    14    15    1
    25    14    16    2
    26    11    17    1
    27    17    18    1
    28    18    19    1
    29    19    20    1
    30    17     2    1
    31    10     5   ar
    32    16    11    1
    33    20    17    1
    34    33    27   ar
    35    23    26    1
    36    15    21    1
    37    15    22    1
@<TRIPOS>MOLECULE
*****
 33 37 0 0 0
SMALL
GASTEIGER

@<TRIPOS>ATOM
      1 C         138.9575  144.4429  164.7507 C.3     1  UNL1        0.0438
      2 C         139.2208  144.3029  163.2806 C.3     1  UNL1        0.1398
      3 C         137.7230  144.3829  163.2706 C.3     1  UNL1        0.0438
      4 O         138.9639  144.1908  161.8070 O.3     1  UNL1       -0.4826
      5 C         140.1134  144.0473  160.8541 C.ar    1  UNL1        0.1361
      6 C         139.8564  143.9351  159.3805 C.ar    1  UNL1        0.0379
      7 C         141.0059  143.7916  158.4276 C.ar    1  UNL1        0.0178
      8 C         142.4123  143.7603  158.9482 C.ar    1  UNL1        0.0505
      9 C         142.6693  143.8725  160.4217 C.ar    1  UNL1        0.0153
     10 C         141.5197  144.0160  161.3747 C.ar    1  UNL1        0.0369
     11 C         141.7766  144.1281  162.8483 C.3     1  UNL1        0.1581
     12 C         143.0203  143.9903  162.0209 C.3     1  UNL1        0.2351
     13 O         144.1986  144.0061  162.9490 O.2     1  UNL1       -0.4478
     14 C         143.6833  144.1538  164.3499 C.2     1  UNL1        0.2770
     15 N         144.5182  144.2152  165.5946 N.pl3   1  UNL1       -0.3133
     16 N         142.1864  144.2292  164.2877 N.2     1  UNL1       -0.2202
     17 C         140.6272  144.2716  163.8012 C.3     1  UNL1        0.1141
     18 C         140.5555  144.2403  163.3901 C.3     1  UNL1        0.1501
     19 O         140.6309  144.2732  163.8222 O.3     1  UNL1       -0.3532
     20 C         140.5555  144.2403  163.3901 C.3     1  UNL1        0.1501
     21 H         145.4990  144.1570  165.5327 H       1  UNL1        0.1466
     22 H         144.0854  144.3137  166.4733 H       1  UNL1        0.1466
     23 N         143.5618  143.6168  157.9952 N.am    1  UNL1       -0.2791
     24 C         144.2733  142.3021  157.8709 C.2     1  UNL1        0.2672
     25 O         143.8354  141.1310  158.6995 O.2     1  UNL1       -0.2682
     26 H         143.8492  144.3854  157.4514 H       1  UNL1        0.1552
     27 C         145.4228  142.1586  156.9180 C.ar    1  UNL1        0.1348
     28 C         145.2095  141.5235  155.5759 C.ar    1  UNL1        0.0246
     29 C         146.3590  141.3800  154.6229 C.ar    1  UNL1        0.0147
     30 C         147.7217  141.8716  155.0120 C.ar    1  UNL1        0.0768
     31 CL        148.8711  141.7281  154.0590 Cl      1  UNL1       -0.0806
     32 C         147.9349  142.5067  156.3541 C.ar    1  UNL1        0.1103
     33 N         146.7855  142.6502  157.3071 N.ar    1  UNL1       -0.2384
@<TRIPOS>BOND
     1     1     2    1
     2     2     3    1
     3     2     4    1
     4     4     5    1
     5     5     6   ar
     6     6     7   ar
     7     7     8   ar
     8     8    23    1
     9    23    24   am
    10    24    25    2
    11    24    27    1
    12    27    28   ar
    13    28    29   ar
    14    29    30   ar
    15    30    31    1
    16    30    32   ar
    17    32    33   ar
    18     8     9   ar
    19     9    10   ar
    20    10    11    1
    21    11    12    1
    22    12    13    1
    23    13    14    1
    24    14    15    1
    25    14    16    2
    26    11    17    1
    27    17    18    1
    28    18    19    1
    29    19    20    1
    30    17     2    1
    31    10     5   ar
    32    16    11    1
    33    20    17    1
    34    33    27   ar
    35    23    26    1
    36    15    21    1
    37    15    22    1
@<TRIPOS>MOLECULE
*****
 33 37 0 0 0
SMALL
GASTEIGER

@<TRIPOS>ATOM
      1 C         142.5841  142.1180  167.9277 C.3     1  UNL1        0.0438
      2 C         141.4862  142.4996  166.9794 C.3     1  UNL1        0.1398
      3 C         140.7250  142.4972  168.2719 C.3     1  UNL1        0.0438
      4 O         140.1239  142.8803  166.4801 O.3     1  UNL1       -0.4826
      5 C         139.9042  143.1309  165.0176 C.ar    1  UNL1        0.1361
      6 C         138.5419  143.5116  164.5183 C.ar    1  UNL1        0.0379
      7 C         138.3222  143.7622  163.0558 C.ar    1  UNL1        0.0178
      8 C         139.4647  143.6320  162.0926 C.ar    1  UNL1        0.0505
      9 C         140.8269  143.2513  162.5919 C.ar    1  UNL1        0.0153
     10 C         141.0467  143.0007  164.0545 C.ar    1  UNL1        0.0369
     11 C         142.4089  142.6200  164.5538 C.3     1  UNL1        0.1581
     12 C         142.3416  142.8384  163.0712 C.3     1  UNL1        0.2351
     13 O         143.7105  142.6019  162.5052 O.2     1  UNL1       -0.4478
     14 C         144.6238  142.2374  163.6378 C.2     1  UNL1        0.2770
     15 N         146.0850  141.9179  163.5244 N.pl3   1  UNL1       -0.3133
     16 N         143.8194  142.2486  164.9040 N.2     1  UNL1       -0.2202
     17 C         142.6287  142.3694  166.0162 C.3     1  UNL1        0.1141
     18 C         142.2486  142.4756  165.8769 C.3     1  UNL1        0.1501
     19 O         142.6481  142.3640  166.0234 O.3     1  UNL1       -0.3532
     20 C         142.2486  142.4756  165.8769 C.3     1  UNL1        0.1501
     21 H         146.5262  141.9371  162.6445 H       1  UNL1        0.1466
     22 H         146.6028  141.6889  164.3298 H       1  UNL1        0.1466
     23 N         139.2449  143.8826  160.6301 N.am    1  UNL1       -0.2791
     24 C         138.9215  142.7399  159.7136 C.2     1  UNL1        0.2672
     25 O         138.8179  141.3467  160.2598 O.2     1  UNL1       -0.2682
     26 H         139.3130  144.7970  160.2717 H       1  UNL1        0.1552
     27 C         138.7018  142.9905  158.2512 C.ar    1  UNL1        0.1348
     28 C         139.6491  143.8700  157.4903 C.ar    1  UNL1        0.0246
     29 C         139.4294  144.1206  156.0278 C.ar    1  UNL1        0.0147
     30 C         138.2623  143.4917  155.3261 C.ar    1  UNL1        0.0768
     31 CL        138.0426  143.7423  153.8637 Cl      1  UNL1       -0.0806
     32 C         137.3149  142.6121  156.0871 C.ar    1  UNL1        0.1103
     33 N         137.5347  142.3616  157.5495 N.ar    1  UNL1       -0.2384
@<TRIPOS>BOND
     1     1     2    1
     2     2     3    1
     3     2     4    1
     4     4     5    1
     5     5     6   ar
     6     6     7   ar
     7     7     8   ar
     8     8    23    1
     9    23    24   am
    10    24    25    2
    11    24    27    1
    12    27    28   ar
    13    28    29   ar
    14    29    30   ar
    15    30    31    1
    16    30    32   ar
    17    32    33   ar
    18     8     9   ar
    19     9    10   ar
    20    10    11    1
    21    11    12    1
    22    12    13    1
    23    13    14    1
    24    14    15    1
    25    14    16    2
    26    11    17    1
    27    17    18    1
    28    18    19    1
    29    19    20    1
    30    17     2    1
    31    10     5   ar
    32    16    11    1
    33    20    17    1
    34    33    27   ar
    35    23    26    1
    36    15    21    1
    37    15    22    1
