@<TRIPOS>MOLECULE
*****
 34 37 0 0 0
SMALL
GASTEIGER

@<TRIPOS>ATOM
      1 C         142.4087  139.6791  161.8720 C.3     1  UNL1        0.1106
      2 C         142.6758  141.1478  161.7258 C.3     1  UNL1        0.0400
      3 C         143.1362  141.9478  162.9082 C.3     1  UNL1        0.0743
      4 N         143.3295  141.2790  164.2369 N.3     1  UNL1       -0.2665
      5 C         143.0624  139.8102  164.3831 C.3     1  UNL1        0.1098
      6 C         142.6020  139.0102  163.2007 C.3     1  UNL1        0.1948
      7 F         142.3349  137.5415  163.3469 F       1  UNL1       -0.2340
      8 C         142.8979  137.9443  160.0009 C.3     1  UNL1        0.1149
      9 N         141.9483  138.8791  160.6896 N.am    1  UNL1       -0.2763
     10 C         140.5383  139.0140  160.1959 C.2     1  UNL1        0.2301
     11 O         140.0779  138.2141  159.0135 O.2     1  UNL1       -0.2745
     12 C         139.5887  139.9489  160.8846 C.3     1  UNL1        0.1116
     13 C         139.2049  139.7089  162.3147 C.ar    1  UNL1       -0.0130
     14 C         139.0798  138.3067  162.8325 C.ar    1  UNL1       -0.0022
     15 C         138.6960  138.0667  164.2625 C.ar    1  UNL1        0.0190
     16 C         138.4372  139.2290  165.1747 C.ar    1  UNL1        0.0862
     17 C         138.5623  140.6312  164.6570 C.ar    1  UNL1        0.0190
     18 C         138.9461  140.8711  163.2269 C.ar    1  UNL1       -0.0022
     19 N         138.0534  138.9890  166.6049 N.ar    1  UNL1       -0.1886
     20 C         138.6455  139.6702  167.8029 C.ar    1  UNL1        0.2258
     21 N         137.9681  139.1279  169.0265 N.ar    1  UNL1       -0.1045
     22 N         136.9573  138.1115  168.5846 N.ar    1  UNL1       -0.0222
     23 N         137.0100  138.0257  167.0880 N.ar    1  UNL1       -0.0385
     24 C         143.7898  142.0789  165.4193 C.3     1  UNL1        0.0992
     25 C         142.8574  142.3232  166.5685 C.ar    1  UNL1       -0.0062
     26 C         143.3837  142.3295  167.9731 C.ar    1  UNL1       -0.0030
     27 C         142.4512  142.5737  169.1224 C.ar    1  UNL1        0.0036
     28 C         140.9924  142.8118  168.8671 C.ar    1  UNL1        0.0714
     29 C         140.4661  142.8055  167.4624 C.ar    1  UNL1        0.0036
     30 C         141.3986  142.5613  166.3132 C.ar    1  UNL1       -0.0030
     31 C         140.0600  143.0561  170.0163 C.3     1  UNL1        0.4186
     32 F         139.1275  143.3003  171.1655 F       1  UNL1       -0.1659
     33 F         139.8444  141.5782  170.1555 F       1  UNL1       -0.1659
     34 F         140.2755  144.5339  169.8771 F       1  UNL1       -0.1659
@<TRIPOS>BOND
     1     8     9    1
     2     9    10   am
     3    10    11    2
     4    10    12    1
     5    12    13    1
     6    13    14   ar
     7    14    15   ar
     8    15    16   ar
     9    16    19    1
    10    19    20   ar
    11    20    21   ar
    12    21    22   ar
    13    22    23   ar
    14    16    17   ar
    15    17    18   ar
    16     1     9    1
    17     1     2    1
    18     2     3    1
    19     3     4    1
    20     4    24    1
    21    24    25    1
    22    25    26   ar
    23    26    27   ar
    24    27    28   ar
    25    28    31    1
    26    31    32    1
    27    31    33    1
    28    31    34    1
    29    28    29   ar
    30    29    30   ar
    31     4     5    1
    32     5     6    1
    33     6     7    1
    34    18    13   ar
    35     6     1    1
    36    23    19   ar
    37    30    25   ar
@<TRIPOS>MOLECULE
*****
 34 37 0 0 0
SMALL
GASTEIGER

@<TRIPOS>ATOM
      1 C         142.4571  140.4023  168.2339 C.3     1  UNL1        0.1106
      2 C         142.6675  139.5606  167.0103 C.3     1  UNL1        0.0400
      3 C         143.2459  140.1730  165.7692 C.3     1  UNL1        0.0743
      4 N         143.6140  141.6270  165.7516 N.3     1  UNL1       -0.2665
      5 C         143.4036  142.4687  166.9753 C.3     1  UNL1        0.1098
      6 C         142.8251  141.8564  168.2164 C.3     1  UNL1        0.1948
      7 F         142.6148  142.6981  169.4400 F       1  UNL1       -0.2340
      8 C         142.7262  138.9044  170.3396 C.3     1  UNL1        0.1149
      9 N         141.8787  139.7900  169.4751 N.am    1  UNL1       -0.2763
     10 C         140.4526  140.0633  169.8517 C.2     1  UNL1        0.2301
     11 O         139.8742  139.4510  171.0929 O.2     1  UNL1       -0.2745
     12 C         139.6051  140.9489  168.9873 C.3     1  UNL1        0.1116
     13 C         139.3008  140.5485  167.5740 C.ar    1  UNL1       -0.0130
     14 C         139.6647  141.4615  166.4409 C.ar    1  UNL1       -0.0022
     15 C         139.3604  141.0611  165.0278 C.ar    1  UNL1        0.0190
     16 C         138.6921  139.7477  164.7478 C.ar    1  UNL1        0.0862
     17 C         138.3281  138.8347  165.8809 C.ar    1  UNL1        0.0190
     18 C         138.6325  139.2352  167.2940 C.ar    1  UNL1       -0.0022
     19 N         138.3877  139.3473  163.3346 N.ar    1  UNL1       -0.1886
     20 C         138.7330  138.0345  162.6963 C.ar    1  UNL1        0.2258
     21 N         138.2434  138.0652  161.2788 N.ar    1  UNL1       -0.1045
     22 N         137.5955  139.3970  161.0410 N.ar    1  UNL1       -0.0222
     23 N         137.6847  140.1894  162.3115 N.ar    1  UNL1       -0.0385
     24 C         144.1924  142.2393  164.5104 C.3     1  UNL1        0.0992
     25 C         143.3128  143.0191  163.5788 C.ar    1  UNL1       -0.0062
     26 C         142.9301  142.4410  162.2487 C.ar    1  UNL1       -0.0030
     27 C         142.0504  143.2208  161.3170 C.ar    1  UNL1        0.0036
     28 C         141.5534  144.5788  161.7154 C.ar    1  UNL1        0.0714
     29 C         141.9361  145.1570  163.0457 C.ar    1  UNL1        0.0036
     30 C         142.8157  144.3771  163.9773 C.ar    1  UNL1       -0.0030
     31 C         140.6737  145.3587  160.7838 C.3     1  UNL1        0.4186
     32 F         139.7941  146.1385  159.8522 F       1  UNL1       -0.1659
     33 F         140.2883  146.2703  161.9108 F       1  UNL1       -0.1659
     34 F         141.0591  144.4470  159.6568 F       1  UNL1       -0.1659
@<TRIPOS>BOND
     1     8     9    1
     2     9    10   am
     3    10    11    2
     4    10    12    1
     5    12    13    1
     6    13    14   ar
     7    14    15   ar
     8    15    16   ar
     9    16    19    1
    10    19    20   ar
    11    20    21   ar
    12    21    22   ar
    13    22    23   ar
    14    16    17   ar
    15    17    18   ar
    16     1     9    1
    17     1     2    1
    18     2     3    1
    19     3     4    1
    20     4    24    1
    21    24    25    1
    22    25    26   ar
    23    26    27   ar
    24    27    28   ar
    25    28    31    1
    26    31    32    1
    27    31    33    1
    28    31    34    1
    29    28    29   ar
    30    29    30   ar
    31     4     5    1
    32     5     6    1
    33     6     7    1
    34    18    13   ar
    35     6     1    1
    36    23    19   ar
    37    30    25   ar
@<TRIPOS>MOLECULE
*****
 34 37 0 0 0
SMALL
GASTEIGER

@<TRIPOS>ATOM
      1 C         143.0686  140.9541  161.6385 C.3     1  UNL1        0.1106
      2 C         144.3535  141.0547  162.4057 C.3     1  UNL1        0.0400
      3 C         144.3578  141.6354  163.7887 C.3     1  UNL1        0.0743
      4 N         143.0771  142.1156  164.4045 N.3     1  UNL1       -0.2665
      5 C         141.7921  142.0151  163.6372 C.3     1  UNL1        0.1098
      6 C         141.7878  141.4343  162.2542 C.3     1  UNL1        0.1948
      7 F         140.5028  141.3337  161.4870 F       1  UNL1       -0.2340
      8 C         142.9657  141.2774  159.0627 C.3     1  UNL1        0.1149
      9 N         143.0643  140.3733  160.2555 N.am    1  UNL1       -0.2763
     10 C         143.1586  138.8883  160.0653 C.2     1  UNL1        0.2301
     11 O         143.1543  138.3076  158.6823 O.2     1  UNL1       -0.2745
     12 C         143.2572  137.9843  161.2581 C.3     1  UNL1        0.1116
     13 C         142.1873  138.0099  162.3092 C.ar    1  UNL1       -0.0130
     14 C         142.5622  138.0952  163.7591 C.ar    1  UNL1       -0.0022
     15 C         141.4923  138.1208  164.8100 C.ar    1  UNL1        0.0190
     16 C         140.0475  138.0613  164.4112 C.ar    1  UNL1        0.0862
     17 C         139.6726  137.9760  162.9613 C.ar    1  UNL1        0.0190
     18 C         140.7425  137.9503  161.9103 C.ar    1  UNL1       -0.0022
     19 N         138.9776  138.0869  165.4622 N.ar    1  UNL1       -0.1886
     20 C         138.4755  139.3048  166.1797 C.ar    1  UNL1        0.2258
     21 N         137.4095  138.8699  167.1412 N.ar    1  UNL1       -0.1045
     22 N         137.2528  137.3831  167.0180 N.ar    1  UNL1       -0.0222
     23 N         138.2219  136.8993  165.9803 N.ar    1  UNL1       -0.0385
     24 C         143.0814  142.6964  165.7875 C.3     1  UNL1        0.0992
     25 C         142.3203  142.0185  166.8879 C.ar    1  UNL1       -0.0062
     26 C         142.6107  140.5870  167.2292 C.ar    1  UNL1       -0.0030
     27 C         141.8496  139.9091  168.3298 C.ar    1  UNL1        0.0036
     28 C         140.7980  140.6626  169.0890 C.ar    1  UNL1        0.0714
     29 C         140.5076  142.0942  168.7476 C.ar    1  UNL1        0.0036
     30 C         141.2687  142.7720  167.6471 C.ar    1  UNL1       -0.0030
     31 C         140.0369  139.9847  170.1894 C.3     1  UNL1        0.4186
     32 F         139.2758  139.3068  171.2899 F       1  UNL1       -0.1659
     33 F         141.2079  139.0825  170.4436 F       1  UNL1       -0.1659
     34 F         138.8659  140.8870  169.9353 F       1  UNL1       -0.1659
@<TRIPOS>BOND
     1     8     9    1
     2     9    10   am
     3    10    11    2
     4    10    12    1
     5    12    13    1
     6    13    14   ar
     7    14    15   ar
     8    15    16   ar
     9    16    19    1
    10    19    20   ar
    11    20    21   ar
    12    21    22   ar
    13    22    23   ar
    14    16    17   ar
    15    17    18   ar
    16     1     9    1
    17     1     2    1
    18     2     3    1
    19     3     4    1
    20     4    24    1
    21    24    25    1
    22    25    26   ar
    23    26    27   ar
    24    27    28   ar
    25    28    31    1
    26    31    32    1
    27    31    33    1
    28    31    34    1
    29    28    29   ar
    30    29    30   ar
    31     4     5    1
    32     5     6    1
    33     6     7    1
    34    18    13   ar
    35     6     1    1
    36    23    19   ar
    37    30    25   ar
@<TRIPOS>MOLECULE
*****
 34 37 0 0 0
SMALL
GASTEIGER

@<TRIPOS>ATOM
      1 C         142.5979  140.5587  168.0105 C.3     1  UNL1        0.1106
      2 C         142.9731  142.0064  168.1256 C.3     1  UNL1        0.0400
      3 C         143.5476  142.7286  166.9431 C.3     1  UNL1        0.0743
      4 N         143.7470  142.0031  165.6454 N.3     1  UNL1       -0.2665
      5 C         143.3718  140.5553  165.5303 C.3     1  UNL1        0.1098
      6 C         142.7972  139.8331  166.7128 C.3     1  UNL1        0.1948
      7 F         142.4220  138.3854  166.5977 F       1  UNL1       -0.2340
      8 C         142.8841  138.9050  169.9937 C.3     1  UNL1        0.1149
      9 N         142.0233  139.8365  169.1930 N.am    1  UNL1       -0.2763
     10 C         140.5878  140.0459  169.5747 C.2     1  UNL1        0.2301
     11 O         140.0133  139.3237  170.7572 O.2     1  UNL1       -0.2745
     12 C         139.7270  140.9774  168.7740 C.3     1  UNL1        0.1116
     13 C         139.3557  140.6290  167.3630 C.ar    1  UNL1       -0.0130
     14 C         138.7144  139.3072  167.0608 C.ar    1  UNL1       -0.0022
     15 C         138.3430  138.9589  165.6499 C.ar    1  UNL1        0.0190
     16 C         138.6130  139.9325  164.5412 C.ar    1  UNL1        0.0862
     17 C         139.2543  141.2544  164.8434 C.ar    1  UNL1        0.0190
     18 C         139.6256  141.6027  166.2543 C.ar    1  UNL1       -0.0022
     19 N         138.2416  139.5842  163.1302 N.ar    1  UNL1       -0.1886
     20 C         137.7198  140.5363  162.0951 C.ar    1  UNL1        0.2258
     21 N         137.4825  139.7633  160.8318 N.ar    1  UNL1       -0.1045
     22 N         137.8578  138.3333  161.0860 N.ar    1  UNL1       -0.0222
     23 N         138.3269  138.2227  162.5065 N.ar    1  UNL1       -0.0385
     24 C         144.3215  142.7253  164.4629 C.3     1  UNL1        0.0992
     25 C         143.4096  143.3836  163.4705 C.ar    1  UNL1       -0.0062
     26 C         142.3962  144.3875  163.9342 C.ar    1  UNL1       -0.0030
     27 C         141.4841  145.0459  162.9418 C.ar    1  UNL1        0.0036
     28 C         141.5856  144.7003  161.4857 C.ar    1  UNL1        0.0714
     29 C         142.5991  143.6963  161.0220 C.ar    1  UNL1        0.0036
     30 C         143.5111  143.0380  162.0144 C.ar    1  UNL1       -0.0030
     31 C         140.6737  145.3586  160.4933 C.3     1  UNL1        0.4186
     32 F         139.7617  146.0169  159.5009 F       1  UNL1       -0.1659
     33 F         141.7409  145.2557  159.4443 F       1  UNL1       -0.1659
     34 F         139.6064  145.4614  161.5422 F       1  UNL1       -0.1659
@<TRIPOS>BOND
     1     8     9    1
     2     9    10   am
     3    10    11    2
     4    10    12    1
     5    12    13    1
     6    13    14   ar
     7    14    15   ar
     8    15    16   ar
     9    16    19    1
    10    19    20   ar
    11    20    21   ar
    12    21    22   ar
    13    22    23   ar
    14    16    17   ar
    15    17    18   ar
    16     1     9    1
    17     1     2    1
    18     2     3    1
    19     3     4    1
    20     4    24    1
    21    24    25    1
    22    25    26   ar
    23    26    27   ar
    24    27    28   ar
    25    28    31    1
    26    31    32    1
    27    31    33    1
    28    31    34    1
    29    28    29   ar
    30    29    30   ar
    31     4     5    1
    32     5     6    1
    33     6     7    1
    34    18    13   ar
    35     6     1    1
    36    23    19   ar
    37    30    25   ar
@<TRIPOS>MOLECULE
*****
 34 37 0 0 0
SMALL
GASTEIGER

@<TRIPOS>ATOM
      1 C         141.3991  142.5942  167.7887 C.3     1  UNL1        0.1106
      2 C         140.5415  142.8852  166.5930 C.3     1  UNL1        0.0400
      3 C         141.1629  142.9891  165.2318 C.3     1  UNL1        0.0743
      4 N         142.6420  142.8021  165.0662 N.3     1  UNL1       -0.2665
      5 C         143.4996  142.5111  166.2620 C.3     1  UNL1        0.1098
      6 C         142.8782  142.4071  167.6232 C.3     1  UNL1        0.1948
      7 F         143.7358  142.1161  168.8190 F       1  UNL1       -0.2340
      8 C         140.3678  143.7324  169.8841 C.3     1  UNL1        0.1149
      9 N         140.7777  142.4903  169.1500 N.am    1  UNL1       -0.2763
     10 C         140.5662  141.1441  169.7771 C.2     1  UNL1        0.2301
     11 O         139.9448  141.0402  171.1384 O.2     1  UNL1       -0.2745
     12 C         140.9762  139.9020  169.0430 C.3     1  UNL1        0.1116
     13 C         140.4776  139.6551  167.6499 C.ar    1  UNL1       -0.0130
     14 C         139.0086  139.7263  167.3554 C.ar    1  UNL1       -0.0022
     15 C         138.5101  139.4794  165.9624 C.ar    1  UNL1        0.0190
     16 C         139.4807  139.1613  164.8639 C.ar    1  UNL1        0.0862
     17 C         140.9498  139.0900  165.1584 C.ar    1  UNL1        0.0190
     18 C         141.4482  139.3369  166.5514 C.ar    1  UNL1       -0.0022
     19 N         138.9822  138.9144  163.4708 N.ar    1  UNL1       -0.1886
     20 C         139.5175  137.8937  162.5108 C.ar    1  UNL1        0.2258
     21 N         138.7271  137.9933  161.2398 N.ar    1  UNL1       -0.1045
     22 N         137.7032  139.0756  161.4144 N.ar    1  UNL1       -0.0222
     23 N         137.8609  139.6448  162.7932 N.ar    1  UNL1       -0.0385
     24 C         143.2634  142.9060  163.7050 C.3     1  UNL1        0.0992
     25 C         143.1882  141.7470  162.7557 C.ar    1  UNL1       -0.0062
     26 C         141.9542  141.5325  161.9304 C.ar    1  UNL1       -0.0030
     27 C         141.8790  140.3735  160.9811 C.ar    1  UNL1        0.0036
     28 C         143.0378  139.4291  160.8571 C.ar    1  UNL1        0.0714
     29 C         144.2718  139.6437  161.6825 C.ar    1  UNL1        0.0036
     30 C         144.3470  140.8027  162.6318 C.ar    1  UNL1       -0.0030
     31 C         142.9626  138.2701  159.9079 C.3     1  UNL1        0.4186
     32 F         142.8874  137.1112  158.9586 F       1  UNL1       -0.1659
     33 F         142.4579  137.3949  161.0165 F       1  UNL1       -0.1659
     34 F         143.4673  139.1454  158.7993 F       1  UNL1       -0.1659
@<TRIPOS>BOND
     1     8     9    1
     2     9    10   am
     3    10    11    2
     4    10    12    1
     5    12    13    1
     6    13    14   ar
     7    14    15   ar
     8    15    16   ar
     9    16    19    1
    10    19    20   ar
    11    20    21   ar
    12    21    22   ar
    13    22    23   ar
    14    16    17   ar
    15    17    18   ar
    16     1     9    1
    17     1     2    1
    18     2     3    1
    19     3     4    1
    20     4    24    1
    21    24    25    1
    22    25    26   ar
    23    26    27   ar
    24    27    28   ar
    25    28    31    1
    26    31    32    1
    27    31    33    1
    28    31    34    1
    29    28    29   ar
    30    29    30   ar
    31     4     5    1
    32     5     6    1
    33     6     7    1
    34    18    13   ar
    35     6     1    1
    36    23    19   ar
    37    30    25   ar
@<TRIPOS>MOLECULE
*****
 34 37 0 0 0
SMALL
GASTEIGER

@<TRIPOS>ATOM
      1 C         141.8406  141.0108  161.0367 C.3     1  UNL1        0.1106
      2 C         140.8255  141.5540  161.9982 C.3     1  UNL1        0.0400
      3 C         141.2433  141.9584  163.3809 C.3     1  UNL1        0.0743
      4 N         142.6762  141.8197  163.8021 N.3     1  UNL1       -0.2665
      5 C         143.6914  141.2765  162.8406 C.3     1  UNL1        0.1098
      6 C         143.2736  140.8721  161.4579 C.3     1  UNL1        0.1948
      7 F         144.2887  140.3289  160.4965 F       1  UNL1       -0.2340
      8 C         141.1167  141.6550  158.6261 C.3     1  UNL1        0.1149
      9 N         141.4228  140.6064  159.6540 N.am    1  UNL1       -0.2763
     10 C         141.3111  139.1532  159.2992 C.2     1  UNL1        0.2301
     11 O         140.8933  138.7487  157.9165 O.2     1  UNL1       -0.2745
     12 C         141.6172  138.1045  160.3271 C.3     1  UNL1        0.1116
     13 C         140.8541  138.0745  161.6182 C.ar    1  UNL1       -0.0130
     14 C         141.5861  137.9234  162.9187 C.ar    1  UNL1       -0.0022
     15 C         140.8230  137.8933  164.2097 C.ar    1  UNL1        0.0190
     16 C         139.3279  138.0144  164.2002 C.ar    1  UNL1        0.0862
     17 C         138.5959  138.1655  162.8997 C.ar    1  UNL1        0.0190
     18 C         139.3590  138.1955  161.6087 C.ar    1  UNL1       -0.0022
     19 N         138.5648  137.9843  165.4913 N.ar    1  UNL1       -0.1886
     20 C         138.2931  139.1600  166.3824 C.ar    1  UNL1        0.2258
     21 N         137.4999  138.6756  167.5598 N.ar    1  UNL1       -0.1045
     22 N         137.2813  137.2006  167.3963 N.ar    1  UNL1       -0.0222
     23 N         137.9395  136.7734  166.1179 N.ar    1  UNL1       -0.0385
     24 C         143.0940  142.2242  165.1848 C.3     1  UNL1        0.0992
     25 C         142.3700  141.6745  166.3780 C.ar    1  UNL1       -0.0062
     26 C         141.3228  142.4994  167.0655 C.ar    1  UNL1       -0.0030
     27 C         140.5988  141.9497  168.2587 C.ar    1  UNL1        0.0036
     28 C         140.9221  140.5750  168.7644 C.ar    1  UNL1        0.0714
     29 C         141.9694  139.7500  168.0768 C.ar    1  UNL1        0.0036
     30 C         142.6933  140.2998  166.8837 C.ar    1  UNL1       -0.0030
     31 C         140.1982  140.0253  169.9575 C.3     1  UNL1        0.4186
     32 F         139.4742  139.4756  171.1507 F       1  UNL1       -0.1659
     33 F         141.4159  139.2334  170.3315 F       1  UNL1       -0.1659
     34 F         138.9804  140.8173  169.5836 F       1  UNL1       -0.1659
@<TRIPOS>BOND
     1     8     9    1
     2     9    10   am
     3    10    11    2
     4    10    12    1
     5    12    13    1
     6    13    14   ar
     7    14    15   ar
     8    15    16   ar
     9    16    19    1
    10    19    20   ar
    11    20    21   ar
    12    21    22   ar
    13    22    23   ar
    14    16    17   ar
    15    17    18   ar
    16     1     9    1
    17     1     2    1
    18     2     3    1
    19     3     4    1
    20     4    24    1
    21    24    25    1
    22    25    26   ar
    23    26    27   ar
    24    27    28   ar
    25    28    31    1
    26    31    32    1
    27    31    33    1
    28    31    34    1
    29    28    29   ar
    30    29    30   ar
    31     4     5    1
    32     5     6    1
    33     6     7    1
    34    18    13   ar
    35     6     1    1
    36    23    19   ar
    37    30    25   ar
@<TRIPOS>MOLECULE
*****
 34 37 0 0 0
SMALL
GASTEIGER

@<TRIPOS>ATOM
      1 C         141.8269  144.1647  161.5528 C.3     1  UNL1        0.1106
      2 C         142.8434  144.6864  162.5247 C.3     1  UNL1        0.0400
      3 C         143.6470  143.7302  163.3552 C.3     1  UNL1        0.0743
      4 N         143.4342  142.2521  163.2138 N.3     1  UNL1       -0.2665
      5 C         142.4177  141.7303  162.2419 C.3     1  UNL1        0.1098
      6 C         141.6140  142.6866  161.4114 C.3     1  UNL1        0.1948
      7 F         140.5976  142.1648  160.4396 F       1  UNL1       -0.2340
      8 C         141.3699  145.3350  159.2788 C.3     1  UNL1        0.1149
      9 N         141.0233  145.1210  160.7224 N.am    1  UNL1       -0.2763
     10 C         139.8730  145.8632  161.3356 C.2     1  UNL1        0.2301
     11 O         139.0694  146.8195  160.5051 O.2     1  UNL1       -0.2745
     12 C         139.5264  145.6492  162.7792 C.3     1  UNL1        0.1116
     13 C         139.3000  144.2602  163.2982 C.ar    1  UNL1       -0.0130
     14 C         138.3561  143.3377  162.5854 C.ar    1  UNL1       -0.0022
     15 C         138.1298  141.9487  163.1045 C.ar    1  UNL1        0.0190
     16 C         138.8474  141.4822  164.3363 C.ar    1  UNL1        0.0862
     17 C         139.7913  142.4046  165.0491 C.ar    1  UNL1        0.0190
     18 C         140.0176  143.7936  164.5300 C.ar    1  UNL1       -0.0022
     19 N         138.6210  140.0931  164.8553 N.ar    1  UNL1       -0.1886
     20 C         138.8943  138.8189  164.1125 C.ar    1  UNL1        0.2258
     21 N         138.5239  137.6727  165.0063 N.ar    1  UNL1       -0.1045
     22 N         138.0216  138.2385  166.3016 N.ar    1  UNL1       -0.0222
     23 N         138.0816  139.7344  166.2082 N.ar    1  UNL1       -0.0385
     24 C         144.2378  141.2958  164.0443 C.3     1  UNL1        0.0992
     25 C         143.6948  140.7978  165.3508 C.ar    1  UNL1       -0.0062
     26 C         143.2640  141.7740  166.4049 C.ar    1  UNL1       -0.0030
     27 C         142.7210  141.2760  167.7115 C.ar    1  UNL1        0.0036
     28 C         142.6089  139.8016  167.9640 C.ar    1  UNL1        0.0714
     29 C         143.0398  138.8253  166.9098 C.ar    1  UNL1        0.0036
     30 C         143.5827  139.3234  165.6032 C.ar    1  UNL1       -0.0030
     31 C         142.0659  139.3035  169.2705 C.3     1  UNL1        0.4186
     32 F         141.5229  138.8055  170.5770 F       1  UNL1       -0.1659
     33 F         141.0660  140.4216  169.2812 F       1  UNL1       -0.1659
     34 F         143.0658  138.1855  169.2598 F       1  UNL1       -0.1659
@<TRIPOS>BOND
     1     8     9    1
     2     9    10   am
     3    10    11    2
     4    10    12    1
     5    12    13    1
     6    13    14   ar
     7    14    15   ar
     8    15    16   ar
     9    16    19    1
    10    19    20   ar
    11    20    21   ar
    12    21    22   ar
    13    22    23   ar
    14    16    17   ar
    15    17    18   ar
    16     1     9    1
    17     1     2    1
    18     2     3    1
    19     3     4    1
    20     4    24    1
    21    24    25    1
    22    25    26   ar
    23    26    27   ar
    24    27    28   ar
    25    28    31    1
    26    31    32    1
    27    31    33    1
    28    31    34    1
    29    28    29   ar
    30    29    30   ar
    31     4     5    1
    32     5     6    1
    33     6     7    1
    34    18    13   ar
    35     6     1    1
    36    23    19   ar
    37    30    25   ar
@<TRIPOS>MOLECULE
*****
 34 37 0 0 0
SMALL
GASTEIGER

@<TRIPOS>ATOM
      1 C         142.4646  140.3249  159.3284 C.3     1  UNL1        0.1106
      2 C         142.6431  139.1144  160.1961 C.3     1  UNL1        0.0400
      3 C         141.4585  138.5038  160.8845 C.3     1  UNL1        0.0743
      4 N         140.0954  139.1037  160.7053 N.3     1  UNL1       -0.2665
      5 C         139.9169  140.3142  159.8375 C.3     1  UNL1        0.1098
      6 C         141.1014  140.9248  159.1491 C.3     1  UNL1        0.1948
      7 F         140.9229  142.1352  158.2814 F       1  UNL1       -0.2340
      8 C         144.2157  140.2914  157.4095 C.3     1  UNL1        0.1149
      9 N         143.6491  140.9355  158.6400 N.am    1  UNL1       -0.2763
     10 C         144.2671  142.1902  159.1820 C.2     1  UNL1        0.2301
     11 O         145.4517  142.8008  158.4936 O.2     1  UNL1       -0.2745
     12 C         143.7005  142.8343  160.4125 C.3     1  UNL1        0.1116
     13 C         143.6410  142.0679  161.7006 C.ar    1  UNL1       -0.0130
     14 C         144.8691  141.3838  162.2236 C.ar    1  UNL1       -0.0022
     15 C         144.8096  140.6174  163.5117 C.ar    1  UNL1        0.0190
     16 C         143.5220  140.5352  164.2767 C.ar    1  UNL1        0.0862
     17 C         142.2939  141.2194  163.7537 C.ar    1  UNL1        0.0190
     18 C         142.3534  141.9857  162.4656 C.ar    1  UNL1       -0.0022
     19 N         143.4626  139.7688  165.5648 N.ar    1  UNL1       -0.1886
     20 C         142.7684  140.2071  166.8203 C.ar    1  UNL1        0.2258
     21 N         142.9636  139.1388  167.8550 N.ar    1  UNL1       -0.1045
     22 N         143.7784  138.0403  167.2390 N.ar    1  UNL1       -0.0222
     23 N         144.0868  138.4297  165.8236 N.ar    1  UNL1       -0.0385
     24 C         138.9108  138.4931  161.3937 C.3     1  UNL1        0.0992
     25 C         138.7348  138.6609  162.8738 C.ar    1  UNL1       -0.0062
     26 C         138.3043  139.9846  163.4326 C.ar    1  UNL1       -0.0030
     27 C         138.1282  140.1525  164.9128 C.ar    1  UNL1        0.0036
     28 C         138.3828  138.9965  165.8342 C.ar    1  UNL1        0.0714
     29 C         138.8134  137.6727  165.2754 C.ar    1  UNL1        0.0036
     30 C         138.9894  137.5049  163.7952 C.ar    1  UNL1       -0.0030
     31 C         138.2068  139.1643  167.3143 C.3     1  UNL1        0.4186
     32 F         138.0308  139.3321  168.7944 F       1  UNL1       -0.1659
     33 F         139.3889  140.0869  167.3503 F       1  UNL1       -0.1659
     34 F         137.0247  138.2417  167.2783 F       1  UNL1       -0.1659
@<TRIPOS>BOND
     1     8     9    1
     2     9    10   am
     3    10    11    2
     4    10    12    1
     5    12    13    1
     6    13    14   ar
     7    14    15   ar
     8    15    16   ar
     9    16    19    1
    10    19    20   ar
    11    20    21   ar
    12    21    22   ar
    13    22    23   ar
    14    16    17   ar
    15    17    18   ar
    16     1     9    1
    17     1     2    1
    18     2     3    1
    19     3     4    1
    20     4    24    1
    21    24    25    1
    22    25    26   ar
    23    26    27   ar
    24    27    28   ar
    25    28    31    1
    26    31    32    1
    27    31    33    1
    28    31    34    1
    29    28    29   ar
    30    29    30   ar
    31     4     5    1
    32     5     6    1
    33     6     7    1
    34    18    13   ar
    35     6     1    1
    36    23    19   ar
    37    30    25   ar
@<TRIPOS>MOLECULE
*****
 34 37 0 0 0
SMALL
GASTEIGER

@<TRIPOS>ATOM
      1 C         141.7062  139.9845  166.7815 C.3     1  UNL1        0.1106
      2 C         142.4314  138.7993  166.2163 C.3     1  UNL1        0.0400
      3 C         143.5479  139.0012  165.2352 C.3     1  UNL1        0.0743
      4 N         143.9392  140.3882  164.8192 N.3     1  UNL1       -0.2665
      5 C         143.2140  141.5734  165.3844 C.3     1  UNL1        0.1098
      6 C         142.0975  141.3716  166.3655 C.3     1  UNL1        0.1948
      7 F         141.3723  142.5567  166.9307 F       1  UNL1       -0.2340
      8 C         140.8459  139.9365  169.2325 C.3     1  UNL1        0.1149
      9 N         140.5897  139.7826  167.7626 N.am    1  UNL1       -0.2763
     10 C         139.2168  139.4270  167.2738 C.2     1  UNL1        0.2301
     11 O         138.1003  139.2251  168.2549 O.2     1  UNL1       -0.2745
     12 C         138.9606  139.2731  165.8039 C.3     1  UNL1        0.1116
     13 C         139.0796  140.4595  164.8936 C.ar    1  UNL1       -0.0130
     14 C         139.8025  140.3316  163.5856 C.ar    1  UNL1       -0.0022
     15 C         139.9215  141.5179  162.6754 C.ar    1  UNL1        0.0190
     16 C         139.3175  142.8320  163.0732 C.ar    1  UNL1        0.0862
     17 C         138.5945  142.9599  164.3812 C.ar    1  UNL1        0.0190
     18 C         138.4756  141.7736  165.2914 C.ar    1  UNL1       -0.0022
     19 N         139.4365  144.0184  162.1629 N.ar    1  UNL1       -0.1886
     20 C         140.1444  144.0477  160.8408 C.ar    1  UNL1        0.2258
     21 N         140.0140  145.4310  160.2757 N.ar    1  UNL1       -0.1045
     22 N         139.2253  146.2566  161.2486 N.ar    1  UNL1       -0.0222
     23 N         138.8684  145.3836  162.4149 N.ar    1  UNL1       -0.0385
     24 C         145.0558  140.5900  163.8381 C.3     1  UNL1        0.0992
     25 C         144.7531  141.0396  162.4395 C.ar    1  UNL1       -0.0062
     26 C         145.1040  142.4323  162.0069 C.ar    1  UNL1       -0.0030
     27 C         144.8013  142.8820  160.6082 C.ar    1  UNL1        0.0036
     28 C         144.1477  141.9389  159.6422 C.ar    1  UNL1        0.0714
     29 C         143.7967  140.5461  160.0748 C.ar    1  UNL1        0.0036
     30 C         144.0994  140.0965  161.4734 C.ar    1  UNL1       -0.0030
     31 C         143.8450  142.3885  158.2435 C.3     1  UNL1        0.4186
     32 F         143.5422  142.8381  156.8449 F       1  UNL1       -0.1659
     33 F         142.3880  142.1135  158.4705 F       1  UNL1       -0.1659
     34 F         145.3019  142.6634  158.0166 F       1  UNL1       -0.1659
@<TRIPOS>BOND
     1     8     9    1
     2     9    10   am
     3    10    11    2
     4    10    12    1
     5    12    13    1
     6    13    14   ar
     7    14    15   ar
     8    15    16   ar
     9    16    19    1
    10    19    20   ar
    11    20    21   ar
    12    21    22   ar
    13    22    23   ar
    14    16    17   ar
    15    17    18   ar
    16     1     9    1
    17     1     2    1
    18     2     3    1
    19     3     4    1
    20     4    24    1
    21    24    25    1
    22    25    26   ar
    23    26    27   ar
    24    27    28   ar
    25    28    31    1
    26    31    32    1
    27    31    33    1
    28    31    34    1
    29    28    29   ar
    30    29    30   ar
    31     4     5    1
    32     5     6    1
    33     6     7    1
    34    18    13   ar
    35     6     1    1
    36    23    19   ar
    37    30    25   ar
