@<TRIPOS>MOLECULE
*****
 37 41 0 0 0
SMALL
GASTEIGER

@<TRIPOS>ATOM
      1 C         139.2378  138.2926  165.1638 C.3     1  UNL1        0.0545
      2 C         138.3060  138.6860  166.2715 C.3     1  UNL1        0.0162
      3 C         139.0993  139.4362  167.3001 C.3     1  UNL1        0.0109
      4 C         139.0136  140.1429  168.6203 C.3     1  UNL1        0.0165
      5 C         140.3828  140.6500  168.9643 C.3     1  UNL1        0.0581
      6 C         141.3146  140.2567  167.8566 C.3     1  UNL1        0.0246
      7 C         140.5214  139.5065  166.8281 C.3     1  UNL1        0.0717
      8 C         140.6070  138.7997  165.5078 C.3     1  UNL1        0.0244
      9 C         141.9434  139.5768  166.3560 C.2     1  UNL1        0.2250
     10 O         142.9512  138.5875  166.8616 O.2     1  UNL1       -0.2749
     11 N         142.3577  140.6364  165.3784 N.am    1  UNL1       -0.2750
     12 C         143.7797  140.7067  164.9064 C.3     1  UNL1        0.1000
     13 C         144.1939  141.7663  163.9288 C.3     1  UNL1        0.0670
     14 C         143.1861  142.7556  163.4233 C.ar    1  UNL1        0.0583
     15 N         143.6003  143.8152  162.4457 N.ar    1  UNL1       -0.2484
     16 C         142.5925  144.8045  161.9401 C.ar    1  UNL1        0.1023
     17 C         141.1704  144.7341  162.4122 C.ar    1  UNL1        0.0902
     18 C         140.7562  143.6745  163.3897 C.ar    1  UNL1        0.0040
     19 C         141.7640  142.6853  163.8953 C.ar    1  UNL1        0.0113
     20 C         141.3498  141.6257  164.8729 C.3     1  UNL1        0.1213
     21 C         140.1626  145.7234  161.9066 C.3     1  UNL1        0.4200
     22 F         139.1547  146.7127  161.4011 F       1  UNL1       -0.1658
     23 F         140.9022  145.8115  160.6046 F       1  UNL1       -0.1658
     24 F         139.4230  145.6353  163.2086 F       1  UNL1       -0.1658
     25 N         140.7548  141.4160  170.1992 N.3     1  UNL1       -0.2716
     26 C         141.8681  140.9276  171.0778 C.3     1  UNL1        0.0896
     27 C         140.0134  142.6704  170.5555 C.3     1  UNL1        0.0896
     28 N         138.8659  137.5266  163.9289 N.3     1  UNL1       -0.2975
     29 H         139.4941  136.7245  163.8795 H       1  UNL1        0.1232
     30 C         140.1362  138.0701  161.7287 C.3     1  UNL1        0.1591
     31 C         140.1835  138.7405  160.3877 C.3     1  UNL1        0.1729
     32 O         139.0078  139.5376  159.9057 O.3     1  UNL1       -0.3511
     33 C         137.7848  139.6645  160.7649 C.3     1  UNL1        0.1437
     34 C         137.7374  138.9941  162.1059 C.3     1  UNL1        0.0503
     35 C         138.9132  138.1969  162.5878 C.3     1  UNL1        0.0865
     36 C         142.5942  137.9665  162.5640 C.3     1  UNL1        0.1742
     37 O         141.3118  137.2730  162.2106 O.3     1  UNL1       -0.3496
@<TRIPOS>BOND
     1    36    37    1
     2    37    30    1
     3    30    31    1
     4    31    32    1
     5    32    33    1
     6    33    34    1
     7    34    35    1
     8    35    28    1
     9     1    28    1
    10     1     2    1
    11     3     2    1
    12     3     4    1
    13     4     5    1
    14     5    25    1
    15    25    26    1
    16    25    27    1
    17     5     6    1
    18     6     7    1
    19     7     9    1
    20     9    10    2
    21     9    11   am
    22    11    12    1
    23    12    13    1
    24    13    14    1
    25    14    15   ar
    26    15    16   ar
    27    16    17   ar
    28    17    21    1
    29    21    22    1
    30    21    23    1
    31    21    24    1
    32    17    18   ar
    33    18    19   ar
    34    19    20    1
    35     7     8    1
    36    35    30    1
    37     8     1    1
    38     7     3    1
    39    20    11    1
    40    19    14   ar
    41    28    29    1
@<TRIPOS>MOLECULE
*****
 37 41 0 0 0
SMALL
GASTEIGER

@<TRIPOS>ATOM
      1 C         140.3352  137.7510  164.0975 C.3     1  UNL1        0.0545
      2 C         139.0085  137.7738  164.7971 C.3     1  UNL1        0.0162
      3 C         139.1617  138.5760  166.0552 C.3     1  UNL1        0.0109
      4 C         138.4365  139.0859  167.2652 C.3     1  UNL1        0.0165
      5 C         139.4096  139.8740  168.0910 C.3     1  UNL1        0.0581
      6 C         140.7362  139.8512  167.3914 C.3     1  UNL1        0.0246
      7 C         140.5831  139.0490  166.1332 C.3     1  UNL1        0.0717
      8 C         141.3083  138.5391  164.9232 C.3     1  UNL1        0.0244
      9 C         142.0044  139.5220  166.2112 C.2     1  UNL1        0.2250
     10 O         143.0263  138.7081  166.9482 O.2     1  UNL1       -0.2749
     11 N         142.4038  140.8090  165.5521 N.am    1  UNL1       -0.2750
     12 C         143.8251  141.2820  165.6301 C.3     1  UNL1        0.1000
     13 C         144.2244  142.5689  164.9710 C.3     1  UNL1        0.0670
     14 C         143.2024  143.3828  164.2340 C.ar    1  UNL1        0.0583
     15 N         143.6018  144.6697  163.5750 N.ar    1  UNL1       -0.2484
     16 C         142.5799  145.4836  162.8380 C.ar    1  UNL1        0.1023
     17 C         141.1585  145.0106  162.7600 C.ar    1  UNL1        0.0902
     18 C         140.7592  143.7237  163.4191 C.ar    1  UNL1        0.0040
     19 C         141.7811  142.9098  164.1561 C.ar    1  UNL1        0.0113
     20 C         141.3818  141.6229  164.8151 C.3     1  UNL1        0.1213
     21 C         140.1365  145.8245  162.0231 C.3     1  UNL1        0.4200
     22 F         139.1146  146.6384  161.2861 F       1  UNL1       -0.1658
     23 F         139.2365  145.7801  163.2222 F       1  UNL1       -0.1658
     24 F         141.0366  145.8688  160.8239 F       1  UNL1       -0.1658
     25 N         139.1088  140.5639  169.3886 N.3     1  UNL1       -0.2716
     26 C         138.0431  140.0239  170.2956 C.3     1  UNL1        0.0896
     27 C         139.8737  141.7937  169.7791 C.3     1  UNL1        0.0896
     28 N         140.6360  137.0611  162.7998 N.3     1  UNL1       -0.2975
     29 H         141.3015  136.3171  163.0093 H       1  UNL1        0.1232
     30 C         140.2877  138.4566  160.6362 C.3     1  UNL1        0.1591
     31 C         140.8562  139.2352  159.4870 C.3     1  UNL1        0.1729
     32 O         142.3413  139.3971  159.3524 O.3     1  UNL1       -0.3511
     33 C         143.2580  138.7804  160.3669 C.3     1  UNL1        0.1437
     34 C         142.6896  138.0017  161.5161 C.3     1  UNL1        0.0503
     35 C         141.2044  137.8398  161.6507 C.3     1  UNL1        0.0865
     36 C         138.0003  139.3224  161.5126 C.3     1  UNL1        0.1742
     37 O         138.8026  138.2947  160.7708 O.3     1  UNL1       -0.3496
@<TRIPOS>BOND
     1    36    37    1
     2    37    30    1
     3    30    31    1
     4    31    32    1
     5    32    33    1
     6    33    34    1
     7    34    35    1
     8    35    28    1
     9     1    28    1
    10     1     2    1
    11     3     2    1
    12     3     4    1
    13     4     5    1
    14     5    25    1
    15    25    26    1
    16    25    27    1
    17     5     6    1
    18     6     7    1
    19     7     9    1
    20     9    10    2
    21     9    11   am
    22    11    12    1
    23    12    13    1
    24    13    14    1
    25    14    15   ar
    26    15    16   ar
    27    16    17   ar
    28    17    21    1
    29    21    22    1
    30    21    23    1
    31    21    24    1
    32    17    18   ar
    33    18    19   ar
    34    19    20    1
    35     7     8    1
    36    35    30    1
    37     8     1    1
    38     7     3    1
    39    20    11    1
    40    19    14   ar
    41    28    29    1
@<TRIPOS>MOLECULE
*****
 37 41 0 0 0
SMALL
GASTEIGER

@<TRIPOS>ATOM
      1 C         144.1292  139.4621  164.8496 C.3     1  UNL1        0.0545
      2 C         143.6815  138.5900  165.9849 C.3     1  UNL1        0.0162
      3 C         142.9923  139.4600  166.9939 C.3     1  UNL1        0.0109
      4 C         142.2896  139.4587  168.3191 C.3     1  UNL1        0.0165
      5 C         141.8771  140.8678  168.6265 C.3     1  UNL1        0.0581
      6 C         142.3247  141.7399  167.4912 C.3     1  UNL1        0.0246
      7 C         143.0140  140.8699  166.4822 C.3     1  UNL1        0.0717
      8 C         143.7166  140.8712  165.1569 C.3     1  UNL1        0.0244
      9 C         143.0357  142.2797  165.9704 C.2     1  UNL1        0.2250
     10 O         143.9601  143.2873  166.5871 O.2     1  UNL1       -0.2749
     11 N         142.1330  142.6820  164.8420 N.am    1  UNL1       -0.2750
     12 C         142.1547  144.0918  164.3302 C.3     1  UNL1        0.1000
     13 C         141.2520  144.4940  163.2018 C.3     1  UNL1        0.0670
     14 C         140.3277  143.4864  162.5851 C.ar    1  UNL1        0.0583
     15 N         139.4249  143.8887  161.4567 N.ar    1  UNL1       -0.2484
     16 C         138.5006  142.8811  160.8400 C.ar    1  UNL1        0.1023
     17 C         138.4789  141.4712  161.3518 C.ar    1  UNL1        0.0902
     18 C         139.3815  141.0690  162.4802 C.ar    1  UNL1        0.0040
     19 C         140.3059  142.0766  163.0969 C.ar    1  UNL1        0.0113
     20 C         141.2086  141.6744  164.2253 C.3     1  UNL1        0.1213
     21 C         137.5545  140.4637  160.7351 C.3     1  UNL1        0.4200
     22 F         136.6301  139.4561  160.1185 F       1  UNL1       -0.1658
     23 F         137.7865  141.0766  159.3859 F       1  UNL1       -0.1658
     24 F         137.3225  139.8507  162.0844 F       1  UNL1       -0.1658
     25 N         141.1453  141.3245  169.8537 N.3     1  UNL1       -0.2716
     26 C         141.8932  141.9985  170.9655 C.3     1  UNL1        0.0896
     27 C         139.6656  141.1071  169.9690 C.3     1  UNL1        0.0896
     28 N         144.8610  139.0054  163.6224 N.3     1  UNL1       -0.2975
     29 H         145.7085  139.5693  163.5581 H       1  UNL1        0.1232
     30 C         144.3409  140.3010  161.4313 C.3     1  UNL1        0.1591
     31 C         143.6722  140.3697  160.0903 C.3     1  UNL1        0.1729
     32 O         142.8550  139.2116  159.5995 O.3     1  UNL1       -0.3511
     33 C         142.7065  137.9847  160.4496 C.3     1  UNL1        0.1437
     34 C         143.3751  137.9160  161.7906 C.3     1  UNL1        0.0503
     35 C         144.1923  139.0742  162.2814 C.3     1  UNL1        0.0865
     36 C         144.5984  142.8497  161.8649 C.3     1  UNL1        0.1742
     37 O         145.1580  141.4591  161.9221 O.3     1  UNL1       -0.3496
@<TRIPOS>BOND
     1    36    37    1
     2    37    30    1
     3    30    31    1
     4    31    32    1
     5    32    33    1
     6    33    34    1
     7    34    35    1
     8    35    28    1
     9     1    28    1
    10     1     2    1
    11     3     2    1
    12     3     4    1
    13     4     5    1
    14     5    25    1
    15    25    26    1
    16    25    27    1
    17     5     6    1
    18     6     7    1
    19     7     9    1
    20     9    10    2
    21     9    11   am
    22    11    12    1
    23    12    13    1
    24    13    14    1
    25    14    15   ar
    26    15    16   ar
    27    16    17   ar
    28    17    21    1
    29    21    22    1
    30    21    23    1
    31    21    24    1
    32    17    18   ar
    33    18    19   ar
    34    19    20    1
    35     7     8    1
    36    35    30    1
    37     8     1    1
    38     7     3    1
    39    20    11    1
    40    19    14   ar
    41    28    29    1
@<TRIPOS>MOLECULE
*****
 37 41 0 0 0
SMALL
GASTEIGER

@<TRIPOS>ATOM
      1 C         141.9196  138.1359  164.7916 C.3     1  UNL1        0.0545
      2 C         142.9603  138.4615  165.8216 C.3     1  UNL1        0.0162
      3 C         142.3394  139.3772  166.8345 C.3     1  UNL1        0.0109
      4 C         142.5988  140.1444  168.0971 C.3     1  UNL1        0.0165
      5 C         141.3347  140.8589  168.4734 C.3     1  UNL1        0.0581
      6 C         140.2940  140.5333  167.4434 C.3     1  UNL1        0.0246
      7 C         140.9149  139.6176  166.4305 C.3     1  UNL1        0.0717
      8 C         140.6555  138.8504  165.1679 C.3     1  UNL1        0.0244
      9 C         139.4905  139.8579  166.0265 C.2     1  UNL1        0.2250
     10 O         138.3711  139.3554  166.8893 O.2     1  UNL1       -0.2749
     11 N         139.1853  140.6008  164.7595 N.am    1  UNL1       -0.2750
     12 C         137.7609  140.8411  164.3555 C.3     1  UNL1        0.1000
     13 C         137.4559  141.5839  163.0885 C.3     1  UNL1        0.0670
     14 C         138.5752  142.0864  162.2257 C.ar    1  UNL1        0.0583
     15 N         138.2701  142.8292  160.9587 N.ar    1  UNL1       -0.2484
     16 C         139.3894  143.3317  160.0958 C.ar    1  UNL1        0.1023
     17 C         140.8139  143.0914  160.4999 C.ar    1  UNL1        0.0902
     18 C         141.1190  142.3486  161.7668 C.ar    1  UNL1        0.0040
     19 C         139.9996  141.8461  162.6297 C.ar    1  UNL1        0.0113
     20 C         140.3047  141.1033  163.8966 C.3     1  UNL1        0.1213
     21 C         141.9332  143.5939  159.6370 C.3     1  UNL1        0.4200
     22 F         143.0526  144.0964  158.7741 F       1  UNL1       -0.1658
     23 F         141.7312  144.9773  160.1805 F       1  UNL1       -0.1658
     24 F         142.1352  142.2105  159.0934 F       1  UNL1       -0.1658
     25 N         141.1447  141.7437  169.6697 N.3     1  UNL1       -0.2716
     26 C         140.5395  143.1064  169.5062 C.3     1  UNL1        0.0896
     27 C         141.5598  141.2656  171.0296 C.3     1  UNL1        0.0896
     28 N         142.1096  137.2512  163.5952 N.3     1  UNL1       -0.2975
     29 H         142.9457  136.6940  163.7709 H       1  UNL1        0.1232
     30 C         141.0766  138.0313  161.3426 C.3     1  UNL1        0.1591
     31 C         141.2384  138.6371  159.9799 C.3     1  UNL1        0.1729
     32 O         142.5950  139.0685  159.5072 O.3     1  UNL1       -0.3511
     33 C         143.7899  138.8942  160.3972 C.3     1  UNL1        0.1437
     34 C         143.6281  138.2884  161.7598 C.3     1  UNL1        0.0503
     35 C         142.2714  137.8570  162.2326 C.3     1  UNL1        0.0865
     36 C         138.5091  138.4109  161.4603 C.3     1  UNL1        0.1742
     37 O         139.7200  137.5999  161.8153 O.3     1  UNL1       -0.3496
@<TRIPOS>BOND
     1    36    37    1
     2    37    30    1
     3    30    31    1
     4    31    32    1
     5    32    33    1
     6    33    34    1
     7    34    35    1
     8    35    28    1
     9     1    28    1
    10     1     2    1
    11     3     2    1
    12     3     4    1
    13     4     5    1
    14     5    25    1
    15    25    26    1
    16    25    27    1
    17     5     6    1
    18     6     7    1
    19     7     9    1
    20     9    10    2
    21     9    11   am
    22    11    12    1
    23    12    13    1
    24    13    14    1
    25    14    15   ar
    26    15    16   ar
    27    16    17   ar
    28    17    21    1
    29    21    22    1
    30    21    23    1
    31    21    24    1
    32    17    18   ar
    33    18    19   ar
    34    19    20    1
    35     7     8    1
    36    35    30    1
    37     8     1    1
    38     7     3    1
    39    20    11    1
    40    19    14   ar
    41    28    29    1
@<TRIPOS>MOLECULE
*****
 37 41 0 0 0
SMALL
GASTEIGER

@<TRIPOS>ATOM
      1 C         138.8055  142.7905  165.0589 C.3     1  UNL1        0.0545
      2 C         139.6255  143.6186  166.0033 C.3     1  UNL1        0.0162
      3 C         140.3727  142.6853  166.9092 C.3     1  UNL1        0.0109
      4 C         141.3412  142.6202  168.0527 C.3     1  UNL1        0.0165
      5 C         141.5817  141.1750  168.3748 C.3     1  UNL1        0.0581
      6 C         140.7617  140.3470  167.4304 C.3     1  UNL1        0.0246
      7 C         140.0145  141.2803  166.5246 C.3     1  UNL1        0.0717
      8 C         139.0460  141.3454  165.3811 C.3     1  UNL1        0.0244
      9 C         139.6564  139.8754  166.1400 C.2     1  UNL1        0.2250
     10 O         138.7779  139.0534  167.0358 O.2     1  UNL1       -0.2749
     11 N         140.1767  139.2925  164.8595 N.am    1  UNL1       -0.2750
     12 C         139.8185  137.8876  164.4749 C.3     1  UNL1        0.1000
     13 C         140.3389  137.3047  163.1945 C.3     1  UNL1        0.0670
     14 C         141.2174  138.1268  162.2987 C.ar    1  UNL1        0.0583
     15 N         141.7377  137.5438  161.0183 N.ar    1  UNL1       -0.2484
     16 C         142.6162  138.3659  160.1224 C.ar    1  UNL1        0.1023
     17 C         142.9744  139.7708  160.5071 C.ar    1  UNL1        0.0902
     18 C         142.4540  140.3537  161.7875 C.ar    1  UNL1        0.0040
     19 C         141.5755  139.5316  162.6833 C.ar    1  UNL1        0.0113
     20 C         141.0552  140.1145  163.9637 C.3     1  UNL1        0.1213
     21 C         143.8529  140.5929  159.6113 C.3     1  UNL1        0.4200
     22 F         144.7314  141.4149  158.7155 F       1  UNL1       -0.1658
     23 F         144.3412  141.3665  160.8000 F       1  UNL1       -0.1658
     24 F         143.3646  139.8193  158.4225 F       1  UNL1       -0.1658
     25 N         142.4838  140.6502  169.4523 N.3     1  UNL1       -0.2716
     26 C         143.5145  141.5475  170.0706 C.3     1  UNL1        0.0896
     27 C         142.3551  139.2279  169.9113 C.3     1  UNL1        0.0896
     28 N         137.9034  143.3154  163.9815 N.3     1  UNL1       -0.2975
     29 H         137.1235  142.6623  163.9063 H       1  UNL1        0.1232
     30 C         138.0959  142.5372  161.5102 C.3     1  UNL1        0.1591
     31 C         138.6256  142.7406  160.1217 C.3     1  UNL1        0.1729
     32 O         139.4926  143.9258  159.8159 O.3     1  UNL1       -0.3511
     33 C         139.8300  144.9076  160.8987 C.3     1  UNL1        0.1437
     34 C         139.3002  144.7042  162.2872 C.3     1  UNL1        0.0503
     35 C         138.4332  143.5189  162.5929 C.3     1  UNL1        0.0865
     36 C         137.8544  140.0191  162.1027 C.3     1  UNL1        0.1742
     37 O         137.2288  141.3520  161.8159 O.3     1  UNL1       -0.3496
@<TRIPOS>BOND
     1    36    37    1
     2    37    30    1
     3    30    31    1
     4    31    32    1
     5    32    33    1
     6    33    34    1
     7    34    35    1
     8    35    28    1
     9     1    28    1
    10     1     2    1
    11     3     2    1
    12     3     4    1
    13     4     5    1
    14     5    25    1
    15    25    26    1
    16    25    27    1
    17     5     6    1
    18     6     7    1
    19     7     9    1
    20     9    10    2
    21     9    11   am
    22    11    12    1
    23    12    13    1
    24    13    14    1
    25    14    15   ar
    26    15    16   ar
    27    16    17   ar
    28    17    21    1
    29    21    22    1
    30    21    23    1
    31    21    24    1
    32    17    18   ar
    33    18    19   ar
    34    19    20    1
    35     7     8    1
    36    35    30    1
    37     8     1    1
    38     7     3    1
    39    20    11    1
    40    19    14   ar
    41    28    29    1
@<TRIPOS>MOLECULE
*****
 37 41 0 0 0
SMALL
GASTEIGER

@<TRIPOS>ATOM
      1 C         144.2668  141.8045  164.8861 C.3     1  UNL1        0.0545
      2 C         143.8939  142.8409  165.9044 C.3     1  UNL1        0.0162
      3 C         143.0249  142.1853  166.9363 C.3     1  UNL1        0.0109
      4 C         142.2574  142.4206  168.2034 C.3     1  UNL1        0.0165
      5 C         141.6188  141.1244  168.6061 C.3     1  UNL1        0.0581
      6 C         141.9917  140.0880  167.5879 C.3     1  UNL1        0.0246
      7 C         142.8607  140.7436  166.5559 C.3     1  UNL1        0.0717
      8 C         143.6282  140.5083  165.2888 C.3     1  UNL1        0.0244
      9 C         142.6965  139.3020  166.1754 C.2     1  UNL1        0.2250
     10 O         143.3339  138.2293  167.0079 O.2     1  UNL1       -0.2749
     11 N         141.8948  138.9331  164.9624 N.am    1  UNL1       -0.2750
     12 C         141.7306  137.4915  164.5819 C.3     1  UNL1        0.1000
     13 C         140.9291  137.1226  163.3690 C.3     1  UNL1        0.0670
     14 C         140.2917  138.1953  162.5365 C.ar    1  UNL1        0.0583
     15 N         139.4901  137.8263  161.3235 N.ar    1  UNL1       -0.2484
     16 C         138.8527  138.8990  160.4909 C.ar    1  UNL1        0.1023
     17 C         139.0169  140.3407  160.8715 C.ar    1  UNL1        0.0902
     18 C         139.8185  140.7096  162.0844 C.ar    1  UNL1        0.0040
     19 C         140.4559  139.6369  162.9169 C.ar    1  UNL1        0.0113
     20 C         141.2575  140.0058  164.1299 C.3     1  UNL1        0.1213
     21 C         138.3795  141.4134  160.0390 C.3     1  UNL1        0.4200
     22 F         137.7421  142.4861  159.2065 F       1  UNL1       -0.1658
     23 F         138.8417  140.7200  158.7917 F       1  UNL1       -0.1658
     24 F         137.9173  142.1067  161.2862 F       1  UNL1       -0.1658
     25 N         140.7584  140.9035  169.8148 N.3     1  UNL1       -0.2716
     26 C         139.3290  140.4797  169.6506 C.3     1  UNL1        0.0896
     27 C         141.3276  141.1063  171.1878 C.3     1  UNL1        0.0896
     28 N         145.1272  142.0255  163.6774 N.3     1  UNL1       -0.2975
     29 H         145.5232  142.9614  163.7649 H       1  UNL1        0.1232
     30 C         144.0487  143.1759  161.6126 C.3     1  UNL1        0.1591
     31 C         143.4509  143.0854  160.2398 C.3     1  UNL1        0.1729
     32 O         143.3338  141.7539  159.5591 O.3     1  UNL1       -0.3511
     33 C         143.8146  140.5129  160.2511 C.3     1  UNL1        0.1437
     34 C         144.4123  140.6034  161.6239 C.3     1  UNL1        0.0503
     35 C         144.5294  141.9350  162.3046 C.3     1  UNL1        0.0865
     36 C         142.9988  145.0672  163.0516 C.3     1  UNL1        0.1742
     37 O         144.1658  144.5074  162.2933 O.3     1  UNL1       -0.3496
@<TRIPOS>BOND
     1    36    37    1
     2    37    30    1
     3    30    31    1
     4    31    32    1
     5    32    33    1
     6    33    34    1
     7    34    35    1
     8    35    28    1
     9     1    28    1
    10     1     2    1
    11     3     2    1
    12     3     4    1
    13     4     5    1
    14     5    25    1
    15    25    26    1
    16    25    27    1
    17     5     6    1
    18     6     7    1
    19     7     9    1
    20     9    10    2
    21     9    11   am
    22    11    12    1
    23    12    13    1
    24    13    14    1
    25    14    15   ar
    26    15    16   ar
    27    16    17   ar
    28    17    21    1
    29    21    22    1
    30    21    23    1
    31    21    24    1
    32    17    18   ar
    33    18    19   ar
    34    19    20    1
    35     7     8    1
    36    35    30    1
    37     8     1    1
    38     7     3    1
    39    20    11    1
    40    19    14   ar
    41    28    29    1
@<TRIPOS>MOLECULE
*****
 37 41 0 0 0
SMALL
GASTEIGER

@<TRIPOS>ATOM
      1 C         138.7283  141.9483  159.7573 C.3     1  UNL1        0.0545
      2 C         138.2151  140.6069  159.3247 C.3     1  UNL1        0.0162
      3 C         139.3048  139.9193  158.5569 C.3     1  UNL1        0.0109
      4 C         139.6612  138.6652  157.8150 C.3     1  UNL1        0.0165
      5 C         141.0682  138.8066  157.3146 C.3     1  UNL1        0.0581
      6 C         141.5814  140.1480  157.7472 C.3     1  UNL1        0.0246
      7 C         140.4916  140.8357  158.5150 C.3     1  UNL1        0.0717
      8 C         140.1353  142.0897  159.2569 C.3     1  UNL1        0.0244
      9 C         141.6784  141.7521  158.4731 C.2     1  UNL1        0.2250
     10 O         141.8611  142.6903  157.3171 O.2     1  UNL1       -0.2749
     11 N         142.6825  141.7304  159.5874 N.am    1  UNL1       -0.2750
     12 C         143.8692  142.6468  159.5455 C.3     1  UNL1        0.1000
     13 C         144.8732  142.6251  160.6597 C.3     1  UNL1        0.0670
     14 C         144.6905  141.6869  161.8157 C.ar    1  UNL1        0.0583
     15 N         145.6946  141.6652  162.9299 N.ar    1  UNL1       -0.2484
     16 C         145.5119  140.7270  164.0860 C.ar    1  UNL1        0.1023
     17 C         144.3251  139.8105  164.1278 C.ar    1  UNL1        0.0902
     18 C         143.3211  139.8323  163.0136 C.ar    1  UNL1        0.0040
     19 C         143.5038  140.7705  161.8576 C.ar    1  UNL1        0.0113
     20 C         142.4998  140.7922  160.7434 C.3     1  UNL1        0.1213
     21 C         144.1423  138.8724  165.2838 C.3     1  UNL1        0.4200
     22 F         143.9596  137.9342  166.4399 F       1  UNL1       -0.1658
     23 F         145.6298  138.7068  165.3846 F       1  UNL1       -0.1658
     24 F         142.6549  139.0380  165.1831 F       1  UNL1       -0.1658
     25 N         141.8284  137.7858  156.5209 N.3     1  UNL1       -0.2716
     26 C         143.2299  138.0763  156.0722 C.3     1  UNL1        0.0896
     27 C         141.1871  136.4744  156.1759 C.3     1  UNL1        0.0896
     28 N         137.9680  142.9692  160.5511 N.3     1  UNL1       -0.2975
     29 H         138.2689  143.8850  160.2178 H       1  UNL1        0.1232
     30 C         138.3878  144.2802  162.7544 C.3     1  UNL1        0.1591
     31 C         138.5021  144.3046  164.2499 C.3     1  UNL1        0.1729
     32 O         138.3109  143.0424  165.0374 O.3     1  UNL1       -0.3511
     33 C         138.0053  141.7557  164.3294 C.3     1  UNL1        0.1437
     34 C         137.8911  141.7313  162.8340 C.3     1  UNL1        0.0503
     35 C         138.0823  142.9936  162.0465 C.3     1  UNL1        0.0865
     36 C         139.9555  145.9588  161.5400 C.3     1  UNL1        0.1742
     37 O         138.5791  145.5424  161.9669 O.3     1  UNL1       -0.3496
@<TRIPOS>BOND
     1    36    37    1
     2    37    30    1
     3    30    31    1
     4    31    32    1
     5    32    33    1
     6    33    34    1
     7    34    35    1
     8    35    28    1
     9     1    28    1
    10     1     2    1
    11     3     2    1
    12     3     4    1
    13     4     5    1
    14     5    25    1
    15    25    26    1
    16    25    27    1
    17     5     6    1
    18     6     7    1
    19     7     9    1
    20     9    10    2
    21     9    11   am
    22    11    12    1
    23    12    13    1
    24    13    14    1
    25    14    15   ar
    26    15    16   ar
    27    16    17   ar
    28    17    21    1
    29    21    22    1
    30    21    23    1
    31    21    24    1
    32    17    18   ar
    33    18    19   ar
    34    19    20    1
    35     7     8    1
    36    35    30    1
    37     8     1    1
    38     7     3    1
    39    20    11    1
    40    19    14   ar
    41    28    29    1
@<TRIPOS>MOLECULE
*****
 37 41 0 0 0
SMALL
GASTEIGER

@<TRIPOS>ATOM
      1 C         138.2281  140.0807  165.1477 C.3     1  UNL1        0.0545
      2 C         138.3340  139.3187  166.4354 C.3     1  UNL1        0.0162
      3 C         139.3397  140.0142  167.3042 C.3     1  UNL1        0.0109
      4 C         140.0267  139.9731  168.6370 C.3     1  UNL1        0.0165
      5 C         140.9670  141.1396  168.7099 C.3     1  UNL1        0.0581
      6 C         140.8611  141.9016  167.4222 C.3     1  UNL1        0.0246
      7 C         139.8554  141.2061  166.5534 C.3     1  UNL1        0.0717
      8 C         139.1684  141.2471  165.2207 C.3     1  UNL1        0.0244
      9 C         140.3710  142.3979  165.8027 C.2     1  UNL1        0.2250
     10 O         140.1642  143.7779  166.3529 O.2     1  UNL1       -0.2749
     11 N         141.0935  142.2097  164.5016 N.am    1  UNL1       -0.2750
     12 C         141.6092  143.4015  163.7509 C.3     1  UNL1        0.1000
     13 C         142.3316  143.2133  162.4499 C.3     1  UNL1        0.0670
     14 C         142.5384  141.8332  161.8997 C.ar    1  UNL1        0.0583
     15 N         143.2609  141.6450  160.5986 N.ar    1  UNL1       -0.2484
     16 C         143.4677  140.2650  160.0484 C.ar    1  UNL1        0.1023
     17 C         142.9520  139.0732  160.7992 C.ar    1  UNL1        0.0902
     18 C         142.2295  139.2614  162.1002 C.ar    1  UNL1        0.0040
     19 C         142.0227  140.6414  162.6504 C.ar    1  UNL1        0.0113
     20 C         141.3003  140.8297  163.9514 C.3     1  UNL1        0.1213
     21 C         143.1588  137.6931  160.2489 C.3     1  UNL1        0.4200
     22 F         143.3655  136.3131  159.6987 F       1  UNL1       -0.1658
     23 F         144.1878  137.4255  161.3070 F       1  UNL1       -0.1658
     24 F         142.1297  137.9608  159.1909 F       1  UNL1       -0.1658
     25 N         141.8569  141.4836  169.8674 N.3     1  UNL1       -0.2716
     26 C         143.3030  141.8051  169.6320 C.3     1  UNL1        0.0896
     27 C         141.3007  141.5061  171.2603 C.3     1  UNL1        0.0896
     28 N         137.3382  139.7366  163.9902 N.3     1  UNL1       -0.2975
     29 H         136.8957  138.8452  164.2137 H       1  UNL1        0.1232
     30 C         137.9208  140.7736  161.6804 C.3     1  UNL1        0.1591
     31 C         138.5004  140.6363  160.3038 C.3     1  UNL1        0.1729
     32 O         139.0769  139.3244  159.8602 O.3     1  UNL1       -0.3511
     33 C         139.0738  138.1499  160.7933 C.3     1  UNL1        0.1437
     34 C         138.4942  138.2873  162.1699 C.3     1  UNL1        0.0503
     35 C         137.9177  139.5992  162.6135 C.3     1  UNL1        0.0865
     36 C         138.2258  143.2947  162.2295 C.3     1  UNL1        0.1742
     37 O         137.3444  142.0855  162.1240 O.3     1  UNL1       -0.3496
@<TRIPOS>BOND
     1    36    37    1
     2    37    30    1
     3    30    31    1
     4    31    32    1
     5    32    33    1
     6    33    34    1
     7    34    35    1
     8    35    28    1
     9     1    28    1
    10     1     2    1
    11     3     2    1
    12     3     4    1
    13     4     5    1
    14     5    25    1
    15    25    26    1
    16    25    27    1
    17     5     6    1
    18     6     7    1
    19     7     9    1
    20     9    10    2
    21     9    11   am
    22    11    12    1
    23    12    13    1
    24    13    14    1
    25    14    15   ar
    26    15    16   ar
    27    16    17   ar
    28    17    21    1
    29    21    22    1
    30    21    23    1
    31    21    24    1
    32    17    18   ar
    33    18    19   ar
    34    19    20    1
    35     7     8    1
    36    35    30    1
    37     8     1    1
    38     7     3    1
    39    20    11    1
    40    19    14   ar
    41    28    29    1
@<TRIPOS>MOLECULE
*****
 37 41 0 0 0
SMALL
GASTEIGER

@<TRIPOS>ATOM
      1 C         141.9153  137.6440  162.3680 C.3     1  UNL1        0.0545
      2 C         140.4811  137.2457  162.5540 C.3     1  UNL1        0.0162
      3 C         140.0336  137.7392  163.8979 C.3     1  UNL1        0.0109
      4 C         138.8707  137.7982  164.8435 C.3     1  UNL1        0.0165
      5 C         139.3096  138.5378  166.0725 C.3     1  UNL1        0.0581
      6 C         140.7437  138.9360  165.8865 C.3     1  UNL1        0.0246
      7 C         141.1912  138.4425  164.5425 C.3     1  UNL1        0.0717
      8 C         142.3541  138.3836  163.5970 C.3     1  UNL1        0.0244
      9 C         142.3488  139.1457  165.1871 C.2     1  UNL1        0.2250
     10 O         143.2970  138.3818  166.0631 O.2     1  UNL1       -0.2749
     11 N         142.5582  140.6129  164.9557 N.am    1  UNL1       -0.2750
     12 C         143.7158  141.3161  165.6002 C.3     1  UNL1        0.1000
     13 C         143.9251  142.7833  165.3688 C.3     1  UNL1        0.0670
     14 C         142.9769  143.5472  164.4929 C.ar    1  UNL1        0.0583
     15 N         143.1863  145.0145  164.2615 N.ar    1  UNL1       -0.2484
     16 C         142.2381  145.7784  163.3855 C.ar    1  UNL1        0.1023
     17 C         141.0805  145.0751  162.7410 C.ar    1  UNL1        0.0902
     18 C         140.8712  143.6080  162.9724 C.ar    1  UNL1        0.0040
     19 C         141.8194  142.8440  163.8483 C.ar    1  UNL1        0.0113
     20 C         141.6100  141.3769  164.0797 C.3     1  UNL1        0.1213
     21 C         140.1323  145.8390  161.8650 C.3     1  UNL1        0.4200
     22 F         139.1841  146.6030  160.9890 F       1  UNL1       -0.1658
     23 F         141.1368  145.8089  160.7514 F       1  UNL1       -0.1658
     24 F         139.1278  145.8692  162.9786 F       1  UNL1       -0.1658
     25 N         138.4628  138.8282  167.2762 N.3     1  UNL1       -0.2716
     26 C         138.9206  139.8343  168.2901 C.3     1  UNL1        0.0896
     27 C         137.1583  138.1125  167.4659 C.3     1  UNL1        0.0896
     28 N         142.7620  137.3535  161.1643 N.3     1  UNL1       -0.2975
     29 H         143.7163  137.2233  161.5000 H       1  UNL1        0.1232
     30 C         143.7064  139.5546  160.1576 C.3     1  UNL1        0.1591
     31 C         143.7745  140.5440  159.0322 C.3     1  UNL1        0.1729
     32 O         142.9665  140.3217  157.7882 O.3     1  UNL1       -0.3511
     33 C         142.0903  139.1100  157.6694 C.3     1  UNL1        0.1437
     34 C         142.0221  138.1206  158.7948 C.3     1  UNL1        0.0503
     35 C         142.8302  138.3429  160.0389 C.3     1  UNL1        0.0865
     36 C         144.6364  141.1554  161.9804 C.3     1  UNL1        0.1742
     37 O         144.5144  139.7769  161.4016 O.3     1  UNL1       -0.3496
@<TRIPOS>BOND
     1    36    37    1
     2    37    30    1
     3    30    31    1
     4    31    32    1
     5    32    33    1
     6    33    34    1
     7    34    35    1
     8    35    28    1
     9     1    28    1
    10     1     2    1
    11     3     2    1
    12     3     4    1
    13     4     5    1
    14     5    25    1
    15    25    26    1
    16    25    27    1
    17     5     6    1
    18     6     7    1
    19     7     9    1
    20     9    10    2
    21     9    11   am
    22    11    12    1
    23    12    13    1
    24    13    14    1
    25    14    15   ar
    26    15    16   ar
    27    16    17   ar
    28    17    21    1
    29    21    22    1
    30    21    23    1
    31    21    24    1
    32    17    18   ar
    33    18    19   ar
    34    19    20    1
    35     7     8    1
    36    35    30    1
    37     8     1    1
    38     7     3    1
    39    20    11    1
    40    19    14   ar
    41    28    29    1
