@<TRIPOS>MOLECULE
*****
 38 42 0 0 0
SMALL
GASTEIGER

@<TRIPOS>ATOM
      1 C         139.7641  138.0049  162.8258 C.ar    1  UNL1        0.2183
      2 N         140.9961  137.1678  162.6485 N.ar    1  UNL1       -0.2122
      3 C         142.0671  137.6027  161.6926 C.ar    1  UNL1        0.1048
      4 C         141.9062  138.8746  160.9140 C.ar    1  UNL1        0.0537
      5 C         142.9772  139.3095  159.9581 C.ar    1  UNL1        0.0093
      6 C         142.8162  140.5814  159.1795 C.ar    1  UNL1        0.0572
      7 C         141.5842  141.4185  159.3567 C.ar    1  UNL1        0.2620
      8 O         141.4232  142.6905  158.5781 O.2     1  UNL1       -0.2669
      9 N         140.5131  140.9837  160.3126 N.ar    1  UNL1       -0.2753
     10 C         140.6741  139.7117  161.0913 C.ar    1  UNL1        0.1505
     11 N         139.6031  139.2768  162.0472 N.ar    1  UNL1       -0.1963
     12 C         143.8873  141.0163  158.2235 C.ar    1  UNL1        0.0152
     13 C         143.9700  140.3994  156.8587 C.ar    1  UNL1        0.0010
     14 C         145.0410  140.8343  155.9028 C.ar    1  UNL1        0.0016
     15 C         146.0293  141.8861  156.3117 C.ar    1  UNL1        0.0185
     16 C         145.9465  142.5029  157.6765 C.ar    1  UNL1        0.0129
     17 C         144.8755  142.0680  158.6324 C.ar    1  UNL1        0.0578
     18 CL        144.7927  142.6849  159.9971 Cl      1  UNL1       -0.0822
     19 C         147.1004  142.3210  155.3558 C.ar    1  UNL1        0.0809
     20 C         146.8280  143.4228  154.3751 C.ar    1  UNL1        0.0191
     21 C         147.8990  143.8577  153.4192 C.ar    1  UNL1        0.0028
     22 C         149.2424  143.1907  153.4440 C.ar    1  UNL1        0.0147
     23 C         149.5147  142.0889  154.4247 C.ar    1  UNL1        0.0593
     24 C         150.8580  141.4220  154.4495 C.3     1  UNL1        0.0521
     25 N         148.4437  141.6540  155.3806 N.ar    1  UNL1       -0.2497
     26 C         138.8226  137.8781  165.2439 C.3     1  UNL1        0.1108
     27 N         138.6930  137.5700  163.7817 N.pl3   1  UNL1       -0.3013
     28 H         137.9050  137.0823  163.4493 H       1  UNL1        0.1497
     29 C         139.2811  141.8207  160.4900 C.3     1  UNL1        0.1716
     30 C         139.1292  142.6832  161.7077 C.3     1  UNL1        0.2589
     31 O         140.2406  142.7657  162.7118 O.3     1  UNL1       -0.3275
     32 C         140.0887  143.6282  163.9295 C.3     1  UNL1        0.1628
     33 C         138.8254  144.4082  164.1433 C.3     1  UNL1        0.1110
     34 N         138.6735  145.2707  165.3611 N.3     1  UNL1       -0.3182
     35 C         137.7140  144.3257  163.1393 C.3     1  UNL1        0.1628
     36 O         137.8659  143.4632  161.9215 O.3     1  UNL1       -0.3275
     37 H         137.7601  145.7244  165.3447 H       1  UNL1        0.1190
     38 H         139.4058  145.9807  165.3684 H       1  UNL1        0.1190
@<TRIPOS>BOND
     1    26    27    1
     2    27     1    1
     3     1     2   ar
     4     2     3   ar
     5     3     4   ar
     6     4     5   ar
     7     5     6   ar
     8     6    12    1
     9    12    13   ar
    10    13    14   ar
    11    14    15   ar
    12    15    19    1
    13    19    20   ar
    14    20    21   ar
    15    21    22   ar
    16    22    23   ar
    17    23    24    1
    18    23    25   ar
    19    15    16   ar
    20    16    17   ar
    21    17    18    1
    22     6     7   ar
    23     7     8    2
    24     7     9   ar
    25     9    29    1
    26    30    29    1
    27    30    31    1
    28    31    32    1
    29    32    33    1
    30    33    34    1
    31    33    35    1
    32    35    36    1
    33     9    10   ar
    34    10    11   ar
    35    11     1   ar
    36    10     4   ar
    37    17    12   ar
    38    36    30    1
    39    25    19   ar
    40    27    28    1
    41    34    37    1
    42    34    38    1
@<TRIPOS>MOLECULE
*****
 38 42 0 0 0
SMALL
GASTEIGER

@<TRIPOS>ATOM
      1 C         139.6991  144.2673  163.0688 C.ar    1  UNL1        0.2183
      2 N         139.3665  144.6963  161.6705 N.ar    1  UNL1       -0.2122
      3 C         139.5490  143.7401  160.5292 C.ar    1  UNL1        0.1048
      4 C         140.0641  142.3550  160.7863 C.ar    1  UNL1        0.0537
      5 C         140.2465  141.3988  159.6450 C.ar    1  UNL1        0.0093
      6 C         140.7616  140.0137  159.9021 C.ar    1  UNL1        0.0572
      7 C         141.0942  139.5847  161.3005 C.ar    1  UNL1        0.2620
      8 O         141.6092  138.1995  161.5576 O.2     1  UNL1       -0.2669
      9 N         140.9117  140.5408  162.4418 N.ar    1  UNL1       -0.2753
     10 C         140.3966  141.9260  162.1846 C.ar    1  UNL1        0.1505
     11 N         140.2141  142.8822  163.3259 N.ar    1  UNL1       -0.1963
     12 C         140.9441  139.0575  158.7609 C.ar    1  UNL1        0.0152
     13 C         139.7491  138.4072  158.1289 C.ar    1  UNL1        0.0010
     14 C         139.9316  137.4510  156.9876 C.ar    1  UNL1        0.0016
     15 C         141.3090  137.1452  156.4784 C.ar    1  UNL1        0.0185
     16 C         142.5039  137.7955  157.1104 C.ar    1  UNL1        0.0129
     17 C         142.3214  138.7516  158.2516 C.ar    1  UNL1        0.0578
     18 CL        143.5162  139.4019  158.8836 Cl      1  UNL1       -0.0822
     19 C         141.4915  136.1890  155.3371 C.ar    1  UNL1        0.0809
     20 C         141.5304  136.7018  153.9280 C.ar    1  UNL1        0.0191
     21 C         141.7129  135.7456  152.7867 C.ar    1  UNL1        0.0028
     22 C         141.8565  134.2767  153.0546 C.ar    1  UNL1        0.0147
     23 C         141.8176  133.7640  154.4637 C.ar    1  UNL1        0.0593
     24 C         141.9612  132.2951  154.7316 C.3     1  UNL1        0.0521
     25 N         141.6351  134.7202  155.6050 N.ar    1  UNL1       -0.2497
     26 C         138.7060  144.8186  165.4054 C.3     1  UNL1        0.1108
     27 N         139.5166  145.2235  164.2100 N.pl3   1  UNL1       -0.3013
     28 H         139.9288  146.1168  164.1745 H       1  UNL1        0.1497
     29 C         141.2442  140.1119  163.8401 C.3     1  UNL1        0.1716
     30 C         140.1891  139.4867  164.7037 C.3     1  UNL1        0.2589
     31 O         139.6473  140.2344  165.8858 O.3     1  UNL1       -0.3275
     32 C         138.5923  139.6092  166.7494 C.3     1  UNL1        0.1628
     33 C         138.0790  138.2362  166.4311 C.3     1  UNL1        0.1110
     34 N         137.0239  137.6110  167.2947 N.3     1  UNL1       -0.3182
     35 C         138.6208  137.4884  165.2490 C.3     1  UNL1        0.1628
     36 O         139.6759  138.1136  164.3853 O.3     1  UNL1       -0.3275
     37 H         136.7953  136.6843  166.9351 H       1  UNL1        0.1190
     38 H         136.1876  138.1948  167.2862 H       1  UNL1        0.1190
@<TRIPOS>BOND
     1    26    27    1
     2    27     1    1
     3     1     2   ar
     4     2     3   ar
     5     3     4   ar
     6     4     5   ar
     7     5     6   ar
     8     6    12    1
     9    12    13   ar
    10    13    14   ar
    11    14    15   ar
    12    15    19    1
    13    19    20   ar
    14    20    21   ar
    15    21    22   ar
    16    22    23   ar
    17    23    24    1
    18    23    25   ar
    19    15    16   ar
    20    16    17   ar
    21    17    18    1
    22     6     7   ar
    23     7     8    2
    24     7     9   ar
    25     9    29    1
    26    30    29    1
    27    30    31    1
    28    31    32    1
    29    32    33    1
    30    33    34    1
    31    33    35    1
    32    35    36    1
    33     9    10   ar
    34    10    11   ar
    35    11     1   ar
    36    10     4   ar
    37    17    12   ar
    38    36    30    1
    39    25    19   ar
    40    27    28    1
    41    34    37    1
    42    34    38    1
@<TRIPOS>MOLECULE
*****
 38 42 0 0 0
SMALL
GASTEIGER

@<TRIPOS>ATOM
      1 C         145.1810  141.0341  156.8317 C.ar    1  UNL1        0.2183
      2 N         145.4266  142.3205  157.5630 N.ar    1  UNL1       -0.2122
      3 C         144.8901  142.5084  158.9511 C.ar    1  UNL1        0.1048
      4 C         144.1079  141.4099  159.6079 C.ar    1  UNL1        0.0537
      5 C         143.5713  141.5978  160.9960 C.ar    1  UNL1        0.0093
      6 C         142.7891  140.4993  161.6528 C.ar    1  UNL1        0.0572
      7 C         142.5434  139.2129  160.9215 C.ar    1  UNL1        0.2620
      8 O         141.7612  138.1144  161.5783 O.2     1  UNL1       -0.2669
      9 N         143.0800  139.0250  159.5334 N.ar    1  UNL1       -0.2753
     10 C         143.8622  140.1235  158.8766 C.ar    1  UNL1        0.1505
     11 N         144.3988  139.9356  157.4885 N.ar    1  UNL1       -0.1963
     12 C         142.2526  140.6872  163.0409 C.ar    1  UNL1        0.0152
     13 C         140.9003  141.3034  163.2452 C.ar    1  UNL1        0.0010
     14 C         140.3637  141.4913  164.6333 C.ar    1  UNL1        0.0016
     15 C         141.1795  141.0630  165.8171 C.ar    1  UNL1        0.0185
     16 C         142.5317  140.4468  165.6127 C.ar    1  UNL1        0.0129
     17 C         143.0682  140.2589  164.2246 C.ar    1  UNL1        0.0578
     18 CL        144.4204  139.6427  164.0202 Cl      1  UNL1       -0.0822
     19 C         140.6429  141.2509  167.2052 C.ar    1  UNL1        0.0809
     20 C         139.9045  140.1340  167.8814 C.ar    1  UNL1        0.0191
     21 C         139.3679  140.3219  169.2695 C.ar    1  UNL1        0.0028
     22 C         139.5698  141.6267  169.9814 C.ar    1  UNL1        0.0147
     23 C         140.3082  142.7436  169.3051 C.ar    1  UNL1        0.0593
     24 C         140.5101  144.0483  170.0170 C.3     1  UNL1        0.0521
     25 N         140.8448  142.5557  167.9170 N.ar    1  UNL1       -0.2497
     26 C         146.9525  141.5795  155.0112 C.3     1  UNL1        0.1108
     27 N         145.7175  140.8462  155.4436 N.pl3   1  UNL1       -0.3013
     28 H         145.2591  140.2416  154.8163 H       1  UNL1        0.1497
     29 C         142.8343  137.7386  158.8021 C.3     1  UNL1        0.1716
     30 C         141.7308  137.6502  157.7899 C.3     1  UNL1        0.2589
     31 O         141.7634  136.5832  156.7362 O.3     1  UNL1       -0.3275
     32 C         140.6599  136.4948  155.7240 C.3     1  UNL1        0.1628
     33 C         139.5238  137.4734  155.7656 C.3     1  UNL1        0.1110
     34 N         138.4203  137.3850  154.7534 N.3     1  UNL1       -0.3182
     35 C         139.4912  138.5404  156.8194 C.3     1  UNL1        0.1628
     36 O         140.5947  138.6288  157.8316 O.3     1  UNL1       -0.3275
     37 H         137.7376  138.1221  154.9295 H       1  UNL1        0.1190
     38 H         137.9647  136.4752  154.8257 H       1  UNL1        0.1190
@<TRIPOS>BOND
     1    26    27    1
     2    27     1    1
     3     1     2   ar
     4     2     3   ar
     5     3     4   ar
     6     4     5   ar
     7     5     6   ar
     8     6    12    1
     9    12    13   ar
    10    13    14   ar
    11    14    15   ar
    12    15    19    1
    13    19    20   ar
    14    20    21   ar
    15    21    22   ar
    16    22    23   ar
    17    23    24    1
    18    23    25   ar
    19    15    16   ar
    20    16    17   ar
    21    17    18    1
    22     6     7   ar
    23     7     8    2
    24     7     9   ar
    25     9    29    1
    26    30    29    1
    27    30    31    1
    28    31    32    1
    29    32    33    1
    30    33    34    1
    31    33    35    1
    32    35    36    1
    33     9    10   ar
    34    10    11   ar
    35    11     1   ar
    36    10     4   ar
    37    17    12   ar
    38    36    30    1
    39    25    19   ar
    40    27    28    1
    41    34    37    1
    42    34    38    1
@<TRIPOS>MOLECULE
*****
 38 42 0 0 0
SMALL
GASTEIGER

@<TRIPOS>ATOM
      1 C         137.8934  143.0376  162.0576 C.ar    1  UNL1        0.2183
      2 N         137.3482  141.6767  162.3745 N.ar    1  UNL1       -0.2122
      3 C         137.7930  140.4863  161.5775 C.ar    1  UNL1        0.1048
      4 C         138.7832  140.6569  160.4638 C.ar    1  UNL1        0.0537
      5 C         139.2280  139.4665  159.6668 C.ar    1  UNL1        0.0093
      6 C         140.2181  139.6371  158.5531 C.ar    1  UNL1        0.0572
      7 C         140.7635  140.9981  158.2362 C.ar    1  UNL1        0.2620
      8 O         141.7536  141.1687  157.1224 O.2     1  UNL1       -0.2669
      9 N         140.3186  142.1885  159.0331 N.ar    1  UNL1       -0.2753
     10 C         139.3284  142.0179  160.1469 C.ar    1  UNL1        0.1505
     11 N         138.8835  143.2082  160.9439 N.ar    1  UNL1       -0.1963
     12 C         140.6630  138.4467  157.7561 C.ar    1  UNL1        0.0152
     13 C         139.7497  137.8493  156.7270 C.ar    1  UNL1        0.0010
     14 C         140.1945  136.6589  155.9301 C.ar    1  UNL1        0.0016
     15 C         141.5527  136.0660  156.1623 C.ar    1  UNL1        0.0185
     16 C         142.4660  136.6635  157.1913 C.ar    1  UNL1        0.0129
     17 C         142.0211  137.8538  157.9882 C.ar    1  UNL1        0.0578
     18 CL        142.9344  138.4513  159.0173 Cl      1  UNL1       -0.0822
     19 C         141.9976  134.8756  155.3653 C.ar    1  UNL1        0.0809
     20 C         141.5027  134.6850  153.9621 C.ar    1  UNL1        0.0191
     21 C         141.9476  133.4946  153.1652 C.ar    1  UNL1        0.0028
     22 C         142.8873  132.4949  153.7714 C.ar    1  UNL1        0.0147
     23 C         143.3821  132.6855  155.1746 C.ar    1  UNL1        0.0593
     24 C         144.3218  131.6858  155.7807 C.3     1  UNL1        0.0521
     25 N         142.9373  133.8759  155.9715 N.ar    1  UNL1       -0.2497
     26 C         137.8624  144.3670  164.2896 C.3     1  UNL1        0.1108
     27 N         137.4486  144.2280  162.8546 N.pl3   1  UNL1       -0.3013
     28 H         136.8849  144.9181  162.4358 H       1  UNL1        0.1497
     29 C         140.8638  143.5495  158.7163 C.3     1  UNL1        0.1716
     30 C         140.1739  144.4173  157.7059 C.3     1  UNL1        0.2589
     31 O         139.2918  143.7978  156.6628 O.3     1  UNL1       -0.3275
     32 C         138.6019  144.6656  155.6523 C.3     1  UNL1        0.1628
     33 C         138.7941  146.1529  155.6850 C.3     1  UNL1        0.1110
     34 N         138.1042  147.0207  154.6746 N.3     1  UNL1       -0.3182
     35 C         139.6763  146.7724  156.7282 C.3     1  UNL1        0.1628
     36 O         140.3662  145.9046  157.7386 O.3     1  UNL1       -0.3275
     37 H         138.3455  147.9972  154.8438 H       1  UNL1        0.1190
     38 H         137.0946  146.9008  154.7563 H       1  UNL1        0.1190
@<TRIPOS>BOND
     1    26    27    1
     2    27     1    1
     3     1     2   ar
     4     2     3   ar
     5     3     4   ar
     6     4     5   ar
     7     5     6   ar
     8     6    12    1
     9    12    13   ar
    10    13    14   ar
    11    14    15   ar
    12    15    19    1
    13    19    20   ar
    14    20    21   ar
    15    21    22   ar
    16    22    23   ar
    17    23    24    1
    18    23    25   ar
    19    15    16   ar
    20    16    17   ar
    21    17    18    1
    22     6     7   ar
    23     7     8    2
    24     7     9   ar
    25     9    29    1
    26    30    29    1
    27    30    31    1
    28    31    32    1
    29    32    33    1
    30    33    34    1
    31    33    35    1
    32    35    36    1
    33     9    10   ar
    34    10    11   ar
    35    11     1   ar
    36    10     4   ar
    37    17    12   ar
    38    36    30    1
    39    25    19   ar
    40    27    28    1
    41    34    37    1
    42    34    38    1
@<TRIPOS>MOLECULE
*****
 38 42 0 0 0
SMALL
GASTEIGER

@<TRIPOS>ATOM
      1 C         143.4528  138.8335  156.2053 C.ar    1  UNL1        0.2183
      2 N         142.9295  137.5723  156.8261 N.ar    1  UNL1       -0.2122
      3 C         142.6515  137.5207  158.2992 C.ar    1  UNL1        0.1048
      4 C         142.8967  138.7303  159.1515 C.ar    1  UNL1        0.0537
      5 C         142.6187  138.6788  160.6246 C.ar    1  UNL1        0.0093
      6 C         142.8640  139.8884  161.4769 C.ar    1  UNL1        0.0572
      7 C         143.3873  141.1497  160.8562 C.ar    1  UNL1        0.2620
      8 O         143.6326  142.3594  161.7085 O.2     1  UNL1       -0.2669
      9 N         143.6653  141.2013  159.3831 N.ar    1  UNL1       -0.2753
     10 C         143.4200  139.9916  158.5307 C.ar    1  UNL1        0.1505
     11 N         143.6981  140.0431  157.0576 N.ar    1  UNL1       -0.1963
     12 C         142.5859  139.8368  162.9500 C.ar    1  UNL1        0.0152
     13 C         143.6400  139.3413  163.8953 C.ar    1  UNL1        0.0010
     14 C         143.3619  139.2897  165.3684 C.ar    1  UNL1        0.0016
     15 C         142.0298  139.7337  165.8963 C.ar    1  UNL1        0.0185
     16 C         140.9759  140.2292  164.9510 C.ar    1  UNL1        0.0129
     17 C         141.2539  140.2808  163.4779 C.ar    1  UNL1        0.0578
     18 CL        140.2000  140.7763  162.5326 Cl      1  UNL1       -0.0822
     19 C         141.7518  139.6821  167.3694 C.ar    1  UNL1        0.0809
     20 C         142.8061  139.1872  168.3147 C.ar    1  UNL1        0.0191
     21 C         142.5280  139.1356  169.7878 C.ar    1  UNL1        0.0028
     22 C         141.1957  139.5790  170.3156 C.ar    1  UNL1        0.0147
     23 C         140.1415  140.0739  169.3702 C.ar    1  UNL1        0.0593
     24 C         138.8093  140.5173  169.8980 C.3     1  UNL1        0.0521
     25 N         140.4196  140.1255  167.8971 N.ar    1  UNL1       -0.2497
     26 C         142.6060  138.7374  153.7510 C.3     1  UNL1        0.1108
     27 N         143.7309  138.8851  154.7322 N.pl3   1  UNL1       -0.3013
     28 H         144.6517  139.0158  154.4093 H       1  UNL1        0.1497
     29 C         144.1886  142.4626  158.7623 C.3     1  UNL1        0.1716
     30 C         143.2336  143.5194  158.2922 C.3     1  UNL1        0.2589
     31 O         143.0067  143.7257  156.8239 O.3     1  UNL1       -0.3275
     32 C         142.0517  144.7826  156.3538 C.3     1  UNL1        0.1628
     33 C         141.3236  145.6331  157.3520 C.3     1  UNL1        0.1110
     34 N         140.3686  146.6900  156.8819 N.3     1  UNL1       -0.3182
     35 C         141.5505  145.4268  158.8204 C.3     1  UNL1        0.1628
     36 O         142.5055  144.3700  159.2905 O.3     1  UNL1       -0.3275
     37 H         139.9666  147.1680  157.6883 H       1  UNL1        0.1190
     38 H         139.6231  146.2565  156.3371 H       1  UNL1        0.1190
@<TRIPOS>BOND
     1    26    27    1
     2    27     1    1
     3     1     2   ar
     4     2     3   ar
     5     3     4   ar
     6     4     5   ar
     7     5     6   ar
     8     6    12    1
     9    12    13   ar
    10    13    14   ar
    11    14    15   ar
    12    15    19    1
    13    19    20   ar
    14    20    21   ar
    15    21    22   ar
    16    22    23   ar
    17    23    24    1
    18    23    25   ar
    19    15    16   ar
    20    16    17   ar
    21    17    18    1
    22     6     7   ar
    23     7     8    2
    24     7     9   ar
    25     9    29    1
    26    30    29    1
    27    30    31    1
    28    31    32    1
    29    32    33    1
    30    33    34    1
    31    33    35    1
    32    35    36    1
    33     9    10   ar
    34    10    11   ar
    35    11     1   ar
    36    10     4   ar
    37    17    12   ar
    38    36    30    1
    39    25    19   ar
    40    27    28    1
    41    34    37    1
    42    34    38    1
@<TRIPOS>MOLECULE
*****
 38 42 0 0 0
SMALL
GASTEIGER

@<TRIPOS>ATOM
      1 C         143.6988  138.6357  156.5375 C.ar    1  UNL1        0.2183
      2 N         143.0790  137.4838  157.2716 N.ar    1  UNL1       -0.2122
      3 C         142.6089  137.6609  158.6850 C.ar    1  UNL1        0.1048
      4 C         142.7586  138.9899  159.3642 C.ar    1  UNL1        0.0537
      5 C         142.2885  139.1669  160.7776 C.ar    1  UNL1        0.0093
      6 C         142.4382  140.4959  161.4568 C.ar    1  UNL1        0.0572
      7 C         143.0579  141.6479  160.7227 C.ar    1  UNL1        0.2620
      8 O         143.2076  142.9769  161.4019 O.2     1  UNL1       -0.2669
      9 N         143.5280  141.4708  159.3093 N.ar    1  UNL1       -0.2753
     10 C         143.3783  140.1417  158.6301 C.ar    1  UNL1        0.1505
     11 N         143.8484  139.9646  157.2167 N.ar    1  UNL1       -0.1963
     12 C         141.9681  140.6730  162.8702 C.ar    1  UNL1        0.0152
     13 C         140.5480  141.0712  163.1440 C.ar    1  UNL1        0.0010
     14 C         140.0779  141.2483  164.5573 C.ar    1  UNL1        0.0016
     15 C         141.0279  141.0272  165.6970 C.ar    1  UNL1        0.0185
     16 C         142.4479  140.6290  165.4232 C.ar    1  UNL1        0.0129
     17 C         142.9180  140.4520  164.0098 C.ar    1  UNL1        0.0578
     18 CL        144.3380  140.0538  163.7360 Cl      1  UNL1       -0.0822
     19 C         140.5578  141.2043  167.1104 C.ar    1  UNL1        0.0809
     20 C         139.8632  140.0778  167.8165 C.ar    1  UNL1        0.0191
     21 C         139.3931  140.2549  169.2298 C.ar    1  UNL1        0.0028
     22 C         139.6176  141.5585  169.9371 C.ar    1  UNL1        0.0147
     23 C         140.3122  142.6850  169.2310 C.ar    1  UNL1        0.0593
     24 C         140.5367  143.9885  169.9383 C.3     1  UNL1        0.0521
     25 N         140.7823  142.5079  167.8177 N.ar    1  UNL1       -0.2497
     26 C         145.0851  139.4725  154.5058 C.3     1  UNL1        0.1108
     27 N         144.1689  138.4586  155.1241 N.pl3   1  UNL1       -0.3013
     28 H         143.8760  137.6768  154.6022 H       1  UNL1        0.1497
     29 C         144.1478  142.6227  158.5751 C.3     1  UNL1        0.1716
     30 C         143.2747  143.6487  157.9156 C.3     1  UNL1        0.2589
     31 O         142.6086  144.7091  158.7413 O.3     1  UNL1       -0.3275
     32 C         141.7355  145.7351  158.0818 C.3     1  UNL1        0.1628
     33 C         141.5286  145.7008  156.5966 C.3     1  UNL1        0.1110
     34 N         140.6555  146.7269  155.9370 N.3     1  UNL1       -0.3182
     35 C         142.1948  144.6404  155.7708 C.3     1  UNL1        0.1628
     36 O         143.0678  143.6144  156.4303 O.3     1  UNL1       -0.3275
     37 H         140.6276  146.5543  154.9321 H       1  UNL1        0.1190
     38 H         141.0337  147.6580  156.1117 H       1  UNL1        0.1190
@<TRIPOS>BOND
     1    26    27    1
     2    27     1    1
     3     1     2   ar
     4     2     3   ar
     5     3     4   ar
     6     4     5   ar
     7     5     6   ar
     8     6    12    1
     9    12    13   ar
    10    13    14   ar
    11    14    15   ar
    12    15    19    1
    13    19    20   ar
    14    20    21   ar
    15    21    22   ar
    16    22    23   ar
    17    23    24    1
    18    23    25   ar
    19    15    16   ar
    20    16    17   ar
    21    17    18    1
    22     6     7   ar
    23     7     8    2
    24     7     9   ar
    25     9    29    1
    26    30    29    1
    27    30    31    1
    28    31    32    1
    29    32    33    1
    30    33    34    1
    31    33    35    1
    32    35    36    1
    33     9    10   ar
    34    10    11   ar
    35    11     1   ar
    36    10     4   ar
    37    17    12   ar
    38    36    30    1
    39    25    19   ar
    40    27    28    1
    41    34    37    1
    42    34    38    1
@<TRIPOS>MOLECULE
*****
 38 42 0 0 0
SMALL
GASTEIGER

@<TRIPOS>ATOM
      1 C         139.9191  144.2293  163.3362 C.ar    1  UNL1        0.2183
      2 N         140.4299  144.7402  162.0216 N.ar    1  UNL1       -0.2122
      3 C         140.7149  143.7813  160.9040 C.ar    1  UNL1        0.1048
      4 C         140.4892  142.3115  161.1008 C.ar    1  UNL1        0.0537
      5 C         140.7743  141.3526  159.9831 C.ar    1  UNL1        0.0093
      6 C         140.5486  139.8828  160.1800 C.ar    1  UNL1        0.0572
      7 C         140.0378  139.3719  161.4946 C.ar    1  UNL1        0.2620
      8 O         139.8121  137.9021  161.6915 O.2     1  UNL1       -0.2669
      9 N         139.7527  140.3308  162.6123 N.ar    1  UNL1       -0.2753
     10 C         139.9785  141.8007  162.4154 C.ar    1  UNL1        0.1505
     11 N         139.6934  142.7596  163.5331 N.ar    1  UNL1       -0.1963
     12 C         140.8336  138.9239  159.0623 C.ar    1  UNL1        0.0152
     13 C         139.7402  138.5322  158.1129 C.ar    1  UNL1        0.0010
     14 C         140.0253  137.5733  156.9953 C.ar    1  UNL1        0.0016
     15 C         141.4037  137.0061  156.8269 C.ar    1  UNL1        0.0185
     16 C         142.4970  137.3978  157.7762 C.ar    1  UNL1        0.0129
     17 C         142.2119  138.3567  158.8939 C.ar    1  UNL1        0.0578
     18 CL        143.3052  138.7484  159.8432 Cl      1  UNL1       -0.0822
     19 C         141.6888  136.0472  155.7092 C.ar    1  UNL1        0.0809
     20 C         141.2974  136.3959  154.3037 C.ar    1  UNL1        0.0191
     21 C         141.5825  135.4370  153.1860 C.ar    1  UNL1        0.0028
     22 C         142.2588  134.1294  153.4738 C.ar    1  UNL1        0.0147
     23 C         142.6501  133.7807  154.8793 C.ar    1  UNL1        0.0593
     24 C         143.3265  132.4732  155.1670 C.3     1  UNL1        0.0521
     25 N         142.3651  134.7396  155.9970 N.ar    1  UNL1       -0.2497
     26 C         138.5605  144.8766  165.4540 C.3     1  UNL1        0.1108
     27 N         139.6341  145.1882  164.4539 N.pl3   1  UNL1       -0.3013
     28 H         140.1516  146.0222  164.5310 H       1  UNL1        0.1497
     29 C         139.2420  139.8200  163.9269 C.3     1  UNL1        0.1716
     30 C         140.1655  139.7266  165.1052 C.3     1  UNL1        0.2589
     31 O         139.7377  140.2659  166.4379 O.3     1  UNL1       -0.3275
     32 C         140.6611  140.1726  167.6162 C.3     1  UNL1        0.1628
     33 C         142.0124  139.5400  167.4619 C.3     1  UNL1        0.1110
     34 N         142.9359  139.4467  168.6402 N.3     1  UNL1       -0.3182
     35 C         142.4403  139.0007  166.1291 C.3     1  UNL1        0.1628
     36 O         141.5168  139.0940  164.9508 O.3     1  UNL1       -0.3275
     37 H         143.8037  138.9918  168.3569 H       1  UNL1        0.1190
     38 H         142.4912  138.9009  169.3783 H       1  UNL1        0.1190
@<TRIPOS>BOND
     1    26    27    1
     2    27     1    1
     3     1     2   ar
     4     2     3   ar
     5     3     4   ar
     6     4     5   ar
     7     5     6   ar
     8     6    12    1
     9    12    13   ar
    10    13    14   ar
    11    14    15   ar
    12    15    19    1
    13    19    20   ar
    14    20    21   ar
    15    21    22   ar
    16    22    23   ar
    17    23    24    1
    18    23    25   ar
    19    15    16   ar
    20    16    17   ar
    21    17    18    1
    22     6     7   ar
    23     7     8    2
    24     7     9   ar
    25     9    29    1
    26    30    29    1
    27    30    31    1
    28    31    32    1
    29    32    33    1
    30    33    34    1
    31    33    35    1
    32    35    36    1
    33     9    10   ar
    34    10    11   ar
    35    11     1   ar
    36    10     4   ar
    37    17    12   ar
    38    36    30    1
    39    25    19   ar
    40    27    28    1
    41    34    37    1
    42    34    38    1
@<TRIPOS>MOLECULE
*****
 38 42 0 0 0
SMALL
GASTEIGER

@<TRIPOS>ATOM
      1 C         139.7611  144.9375  155.8639 C.ar    1  UNL1        0.2183
      2 N         140.5618  145.8609  156.7334 N.ar    1  UNL1       -0.2122
      3 C         140.6925  145.5833  158.2017 C.ar    1  UNL1        0.1048
      4 C         140.0226  144.3822  158.8004 C.ar    1  UNL1        0.0537
      5 C         140.1534  144.1046  160.2687 C.ar    1  UNL1        0.0093
      6 C         139.4835  142.9035  160.8674 C.ar    1  UNL1        0.0572
      7 C         138.6827  141.9799  159.9979 C.ar    1  UNL1        0.2620
      8 O         138.0128  140.7788  160.5966 O.2     1  UNL1       -0.2669
      9 N         138.5520  142.2576  158.5296 N.ar    1  UNL1       -0.2753
     10 C         139.2220  143.4588  157.9309 C.ar    1  UNL1        0.1505
     11 N         139.0912  143.7364  156.4626 N.ar    1  UNL1       -0.1963
     12 C         139.6142  142.6258  162.3357 C.ar    1  UNL1        0.0152
     13 C         140.6263  141.6321  162.8239 C.ar    1  UNL1        0.0010
     14 C         140.7571  141.3545  164.2921 C.ar    1  UNL1        0.0016
     15 C         139.8757  142.0705  165.2722 C.ar    1  UNL1        0.0185
     16 C         138.8637  143.0642  164.7841 C.ar    1  UNL1        0.0129
     17 C         138.7329  143.3418  163.3158 C.ar    1  UNL1        0.0578
     18 CL        137.7209  144.3355  162.8276 Cl      1  UNL1       -0.0822
     19 C         140.0065  141.7929  166.7405 C.ar    1  UNL1        0.0809
     20 C         139.7655  140.4089  167.2665 C.ar    1  UNL1        0.0191
     21 C         139.8963  140.1312  168.7347 C.ar    1  UNL1        0.0028
     22 C         140.2680  141.2376  169.6770 C.ar    1  UNL1        0.0147
     23 C         140.5089  142.6215  169.1511 C.ar    1  UNL1        0.0593
     24 C         140.8806  143.7278  170.0934 C.3     1  UNL1        0.0521
     25 N         140.3782  142.8991  167.6828 N.ar    1  UNL1       -0.2497
     26 C         140.8577  145.3167  153.5393 C.3     1  UNL1        0.1108
     27 N         139.6303  145.2151  154.3956 N.pl3   1  UNL1       -0.3013
     28 H         138.7390  145.3307  153.9940 H       1  UNL1        0.1497
     29 C         137.7513  141.3341  157.6601 C.3     1  UNL1        0.1716
     30 C         138.3609  140.0580  157.1603 C.3     1  UNL1        0.2589
     31 O         139.3298  139.3023  158.0206 O.3     1  UNL1       -0.3275
     32 C         139.9393  138.0261  157.5208 C.3     1  UNL1        0.1628
     33 C         139.5800  137.5056  156.1607 C.3     1  UNL1        0.1110
     34 N         140.1896  136.2294  155.6609 N.3     1  UNL1       -0.3182
     35 C         138.6111  138.2613  155.3003 C.3     1  UNL1        0.1628
     36 O         138.0015  139.5374  155.8001 O.3     1  UNL1       -0.3275
     37 H         139.8361  136.0272  154.7258 H       1  UNL1        0.1190
     38 H         139.9429  135.4655  156.2902 H       1  UNL1        0.1190
@<TRIPOS>BOND
     1    26    27    1
     2    27     1    1
     3     1     2   ar
     4     2     3   ar
     5     3     4   ar
     6     4     5   ar
     7     5     6   ar
     8     6    12    1
     9    12    13   ar
    10    13    14   ar
    11    14    15   ar
    12    15    19    1
    13    19    20   ar
    14    20    21   ar
    15    21    22   ar
    16    22    23   ar
    17    23    24    1
    18    23    25   ar
    19    15    16   ar
    20    16    17   ar
    21    17    18    1
    22     6     7   ar
    23     7     8    2
    24     7     9   ar
    25     9    29    1
    26    30    29    1
    27    30    31    1
    28    31    32    1
    29    32    33    1
    30    33    34    1
    31    33    35    1
    32    35    36    1
    33     9    10   ar
    34    10    11   ar
    35    11     1   ar
    36    10     4   ar
    37    17    12   ar
    38    36    30    1
    39    25    19   ar
    40    27    28    1
    41    34    37    1
    42    34    38    1
@<TRIPOS>MOLECULE
*****
 38 42 0 0 0
SMALL
GASTEIGER

@<TRIPOS>ATOM
      1 C         139.7766  145.1185  155.2596 C.ar    1  UNL1        0.2183
      2 N         140.2509  146.1557  156.2339 N.ar    1  UNL1       -0.2122
      3 C         140.3085  145.8380  157.6987 C.ar    1  UNL1        0.1048
      4 C         139.8919  144.4831  158.1892 C.ar    1  UNL1        0.0537
      5 C         139.9495  144.1654  159.6541 C.ar    1  UNL1        0.0093
      6 C         139.5330  142.8105  160.1446 C.ar    1  UNL1        0.0572
      7 C         139.0587  141.7732  159.1703 C.ar    1  UNL1        0.2620
      8 O         138.6421  140.4183  159.6608 O.2     1  UNL1       -0.2669
      9 N         139.0010  142.0909  157.7054 N.ar    1  UNL1       -0.2753
     10 C         139.4177  143.4459  157.2149 C.ar    1  UNL1        0.1505
     11 N         139.3600  143.7636  155.7501 N.ar    1  UNL1       -0.1963
     12 C         139.5906  142.4927  161.6094 C.ar    1  UNL1        0.0152
     13 C         138.4197  142.8090  162.4921 C.ar    1  UNL1        0.0010
     14 C         138.4773  142.4912  163.9569 C.ar    1  UNL1        0.0016
     15 C         139.7059  141.8573  164.5391 C.ar    1  UNL1        0.0185
     16 C         140.8767  141.5411  163.6564 C.ar    1  UNL1        0.0129
     17 C         140.8191  141.8588  162.1916 C.ar    1  UNL1        0.0578
     18 CL        141.9899  141.5426  161.3089 Cl      1  UNL1       -0.0822
     19 C         139.7635  141.5395  166.0039 C.ar    1  UNL1        0.0809
     20 C         139.3162  140.1957  166.4980 C.ar    1  UNL1        0.0191
     21 C         139.3738  139.8780  167.9629 C.ar    1  UNL1        0.0028
     22 C         139.8788  140.9041  168.9336 C.ar    1  UNL1        0.0147
     23 C         140.3261  142.2478  168.4394 C.ar    1  UNL1        0.0593
     24 C         140.8311  143.2738  169.4101 C.3     1  UNL1        0.0521
     25 N         140.2685  142.5656  166.9746 N.ar    1  UNL1       -0.2497
     26 C         140.9667  145.3753  152.9644 C.3     1  UNL1        0.1108
     27 N         139.7190  145.4363  153.7948 N.pl3   1  UNL1       -0.3013
     28 H         138.8622  145.6848  153.3783 H       1  UNL1        0.1497
     29 C         138.5268  141.0538  156.7311 C.3     1  UNL1        0.1716
     30 C         137.1088  141.0765  156.2425 C.3     1  UNL1        0.2589
     31 O         136.7595  141.8216  154.9884 O.3     1  UNL1       -0.3275
     32 C         135.3415  141.8443  154.4998 C.3     1  UNL1        0.1628
     33 C         134.2728  141.1219  155.2652 C.3     1  UNL1        0.1110
     34 N         132.8548  141.1446  154.7766 N.3     1  UNL1       -0.3182
     35 C         134.6221  140.3767  156.5194 C.3     1  UNL1        0.1628
     36 O         136.0401  140.3540  157.0080 O.3     1  UNL1       -0.3275
     37 H         132.2671  140.6065  155.4133 H       1  UNL1        0.1190
     38 H         132.8100  140.7342  153.8438 H       1  UNL1        0.1190
@<TRIPOS>BOND
     1    26    27    1
     2    27     1    1
     3     1     2   ar
     4     2     3   ar
     5     3     4   ar
     6     4     5   ar
     7     5     6   ar
     8     6    12    1
     9    12    13   ar
    10    13    14   ar
    11    14    15   ar
    12    15    19    1
    13    19    20   ar
    14    20    21   ar
    15    21    22   ar
    16    22    23   ar
    17    23    24    1
    18    23    25   ar
    19    15    16   ar
    20    16    17   ar
    21    17    18    1
    22     6     7   ar
    23     7     8    2
    24     7     9   ar
    25     9    29    1
    26    30    29    1
    27    30    31    1
    28    31    32    1
    29    32    33    1
    30    33    34    1
    31    33    35    1
    32    35    36    1
    33     9    10   ar
    34    10    11   ar
    35    11     1   ar
    36    10     4   ar
    37    17    12   ar
    38    36    30    1
    39    25    19   ar
    40    27    28    1
    41    34    37    1
    42    34    38    1
