@<TRIPOS>MOLECULE
*****
 28 31 0 0 0
SMALL
GASTEIGER

@<TRIPOS>ATOM
      1 C         142.9188  138.3102  159.6314 C.ar    1  UNL1        0.2297
      2 C         141.5000  138.4100  160.1078 C.ar    1  UNL1        0.0583
      3 C         141.1953  138.3472  161.5752 C.ar    1  UNL1        0.0109
      4 C         142.3096  138.1846  162.5662 C.ar    1  UNL1        0.0729
      5 C         143.7284  138.0848  162.0899 C.ar    1  UNL1        0.1065
      6 N         144.0330  138.1476  160.6224 N.ar    1  UNL1       -0.2097
      7 C         142.0049  138.1218  164.0336 C.2     1  UNL1        0.2506
      8 O         141.3671  136.8951  164.6154 O.2     1  UNL1       -0.2699
      9 N         142.3380  139.2857  164.9193 N.am    1  UNL1       -0.2746
     10 C         142.9729  140.4614  164.2375 C.3     1  UNL1        0.0952
     11 C         143.4188  141.7619  164.8377 C.3     1  UNL1        0.0388
     12 C         143.3400  142.2076  166.2677 C.3     1  UNL1        0.0739
     13 N         142.7958  141.4632  167.4508 N.3     1  UNL1       -0.2725
     14 C         142.1961  140.0891  167.4961 C.3     1  UNL1        0.0938
     15 C         141.9924  139.1200  166.3693 C.3     1  UNL1        0.1110
     16 C         142.8599  142.1888  168.7620 C.3     1  UNL1        0.0576
     17 C         141.8715  142.9275  169.6150 C.3     1  UNL1        0.0160
     18 C         142.9505  143.2151  170.6164 C.3     1  UNL1        0.0028
     19 C         143.9390  142.4765  169.7635 C.3     1  UNL1        0.0160
     20 O         143.2235  138.3730  158.1640 O.3     1  UNL1       -0.4361
     21 C         140.4296  136.7985  155.8263 C.ar    1  UNL1        0.0715
     22 C         141.1421  135.5827  155.3124 C.ar    1  UNL1        0.0105
     23 C         142.5483  135.2970  155.7490 C.ar    1  UNL1        0.0038
     24 C         143.2422  136.2271  156.6996 C.ar    1  UNL1        0.0376
     25 C         142.5297  137.4429  157.2135 C.ar    1  UNL1        0.1479
     26 C         141.1234  137.7286  156.7769 C.ar    1  UNL1        0.0478
     27 N         137.6170  137.3699  154.9531 N.1     1  UNL1       -0.1908
     28 C         139.0232  137.0842  155.3897 C.1     1  UNL1        0.1005
@<TRIPOS>BOND
     1    27    28    3
     2    28    21    1
     3    21    22   ar
     4    22    23   ar
     5    23    24   ar
     6    24    25   ar
     7    25    20    1
     8    20     1    1
     9     1     2   ar
    10     2     3   ar
    11     3     4   ar
    12     4     7    1
    13     7     8    2
    14     7     9   am
    15     9    10    1
    16    10    11    1
    17    11    12    1
    18    12    13    1
    19    13    16    1
    20    16    17    1
    21    17    18    1
    22    18    19    1
    23    13    14    1
    24    14    15    1
    25     4     5   ar
    26     5     6   ar
    27    25    26   ar
    28    26    21   ar
    29     6     1   ar
    30    15     9    1
    31    19    16    1
@<TRIPOS>MOLECULE
*****
 28 31 0 0 0
SMALL
GASTEIGER

@<TRIPOS>ATOM
      1 C         138.5203  138.9332  165.9356 C.ar    1  UNL1        0.2297
      2 C         138.8766  137.6844  165.1850 C.ar    1  UNL1        0.0583
      3 C         138.8584  137.6799  163.6851 C.ar    1  UNL1        0.0109
      4 C         138.4839  138.9243  162.9358 C.ar    1  UNL1        0.0729
      5 C         138.1277  140.1731  163.6865 C.ar    1  UNL1        0.1065
      6 N         138.1459  140.1775  165.1864 N.ar    1  UNL1       -0.2097
      7 C         138.4658  138.9197  161.4360 C.2     1  UNL1        0.2506
      8 O         137.1996  139.2447  160.7003 O.2     1  UNL1       -0.2699
      9 N         139.7137  138.5902  160.6718 N.am    1  UNL1       -0.2746
     10 C         140.9233  138.2805  161.5032 C.3     1  UNL1        0.0952
     11 C         142.3050  137.9181  161.0454 C.3     1  UNL1        0.0388
     12 C         142.8184  137.7758  159.6433 C.3     1  UNL1        0.0739
     13 N         142.0769  137.9608  158.3525 N.3     1  UNL1       -0.2725
     14 C         140.6389  138.3338  158.1451 C.3     1  UNL1        0.0938
     15 C         139.5872  138.6139  159.1774 C.3     1  UNL1        0.1110
     16 C         142.8796  137.7442  157.1040 C.3     1  UNL1        0.0576
     17 C         143.5232  138.6405  156.0879 C.3     1  UNL1        0.0160
     18 C         144.0148  137.4378  155.3383 C.3     1  UNL1        0.0028
     19 C         143.3712  136.5414  156.3543 C.3     1  UNL1        0.0160
     20 O         138.5385  138.9378  167.4355 O.3     1  UNL1       -0.4361
     21 C         141.3575  141.6052  168.2644 C.ar    1  UNL1        0.0715
     22 C         140.9540  142.0238  169.6472 C.ar    1  UNL1        0.0105
     23 C         139.7453  141.4137  170.2926 C.ar    1  UNL1        0.0038
     24 C         138.9401  140.3849  169.5555 C.ar    1  UNL1        0.0376
     25 C         139.3437  139.9664  168.1728 C.ar    1  UNL1        0.1479
     26 C         140.5523  140.5765  167.5272 C.ar    1  UNL1        0.0478
     27 N         143.7750  142.8256  166.9734 N.1     1  UNL1       -0.1908
     28 C         142.5663  142.2154  167.6189 C.1     1  UNL1        0.1005
@<TRIPOS>BOND
     1    27    28    3
     2    28    21    1
     3    21    22   ar
     4    22    23   ar
     5    23    24   ar
     6    24    25   ar
     7    25    20    1
     8    20     1    1
     9     1     2   ar
    10     2     3   ar
    11     3     4   ar
    12     4     7    1
    13     7     8    2
    14     7     9   am
    15     9    10    1
    16    10    11    1
    17    11    12    1
    18    12    13    1
    19    13    16    1
    20    16    17    1
    21    17    18    1
    22    18    19    1
    23    13    14    1
    24    14    15    1
    25     4     5   ar
    26     5     6   ar
    27    25    26   ar
    28    26    21   ar
    29     6     1   ar
    30    15     9    1
    31    19    16    1
@<TRIPOS>MOLECULE
*****
 28 31 0 0 0
SMALL
GASTEIGER

@<TRIPOS>ATOM
      1 C         142.9746  138.4643  159.3274 C.ar    1  UNL1        0.2297
      2 C         141.5522  138.5688  159.7919 C.ar    1  UNL1        0.0583
      3 C         141.2299  138.4556  161.2525 C.ar    1  UNL1        0.0109
      4 C         142.3302  138.2379  162.2486 C.ar    1  UNL1        0.0729
      5 C         143.7526  138.1333  161.7841 C.ar    1  UNL1        0.1065
      6 N         144.0747  138.2465  160.3234 N.ar    1  UNL1       -0.2097
      7 C         142.0079  138.1247  163.7092 C.2     1  UNL1        0.2506
      8 O         141.3905  136.8674  164.2458 O.2     1  UNL1       -0.2699
      9 N         142.3031  139.2688  164.6332 N.am    1  UNL1       -0.2746
     10 C         142.9200  140.4782  163.9952 C.3     1  UNL1        0.0952
     11 C         143.3285  141.7697  164.6395 C.3     1  UNL1        0.0388
     12 C         143.2211  142.1709  166.0807 C.3     1  UNL1        0.0739
     13 N         142.6785  141.3797  167.2339 N.3     1  UNL1       -0.2725
     14 C         142.1095  139.9918  167.2304 C.3     1  UNL1        0.0938
     15 C         141.9424  139.0524  166.0729 C.3     1  UNL1        0.1110
     16 C         142.7091  142.0672  168.5666 C.3     1  UNL1        0.0576
     17 C         141.7146  142.8324  169.3885 C.3     1  UNL1        0.0160
     18 C         142.7523  143.0396  170.4515 C.3     1  UNL1        0.0028
     19 C         143.7469  142.2744  169.6298 C.3     1  UNL1        0.0160
     20 O         143.2968  138.5775  157.8667 O.3     1  UNL1       -0.4361
     21 C         142.4049  135.0670  156.2448 C.ar    1  UNL1        0.0715
     22 C         141.7381  135.5031  154.9739 C.ar    1  UNL1        0.0105
     23 C         141.5910  136.9640  154.6673 C.ar    1  UNL1        0.0038
     24 C         142.1105  137.9889  155.6316 C.ar    1  UNL1        0.0376
     25 C         142.7773  137.5527  156.9025 C.ar    1  UNL1        0.1479
     26 C         142.9245  136.0918  157.2091 C.ar    1  UNL1        0.0478
     27 N         142.6993  132.1452  156.8580 N.1     1  UNL1       -0.1908
     28 C         142.5521  133.6061  156.5514 C.1     1  UNL1        0.1005
@<TRIPOS>BOND
     1    27    28    3
     2    28    21    1
     3    21    22   ar
     4    22    23   ar
     5    23    24   ar
     6    24    25   ar
     7    25    20    1
     8    20     1    1
     9     1     2   ar
    10     2     3   ar
    11     3     4   ar
    12     4     7    1
    13     7     8    2
    14     7     9   am
    15     9    10    1
    16    10    11    1
    17    11    12    1
    18    12    13    1
    19    13    16    1
    20    16    17    1
    21    17    18    1
    22    18    19    1
    23    13    14    1
    24    14    15    1
    25     4     5   ar
    26     5     6   ar
    27    25    26   ar
    28    26    21   ar
    29     6     1   ar
    30    15     9    1
    31    19    16    1
@<TRIPOS>MOLECULE
*****
 28 31 0 0 0
SMALL
GASTEIGER

@<TRIPOS>ATOM
      1 C         142.6375  141.9056  165.1433 C.ar    1  UNL1        0.2297
      2 C         143.4745  143.0974  164.7839 C.ar    1  UNL1        0.0583
      3 C         143.0121  144.0442  163.7164 C.ar    1  UNL1        0.0109
      4 C         141.7125  143.7993  163.0082 C.ar    1  UNL1        0.0729
      5 C         140.8756  142.6075  163.3676 C.ar    1  UNL1        0.1065
      6 N         141.3381  141.6607  164.4352 N.ar    1  UNL1       -0.2097
      7 C         141.2501  144.7461  161.9407 C.2     1  UNL1        0.2506
      8 O         140.3828  145.9160  162.3002 O.2     1  UNL1       -0.2699
      9 N         141.6550  144.5232  160.5137 N.am    1  UNL1       -0.2746
     10 C         142.5225  143.3253  160.2630 C.3     1  UNL1        0.0952
     11 C         143.0881  142.8360  158.9626 C.3     1  UNL1        0.0388
     12 C         142.9260  143.4236  157.5922 C.3     1  UNL1        0.0739
     13 N         142.1583  144.6457  157.1833 N.3     1  UNL1       -0.2725
     14 C         141.3630  145.5820  158.0441 C.3     1  UNL1        0.0938
     15 C         141.1391  145.5274  159.5263 C.3     1  UNL1        0.1110
     16 C         142.1901  144.9750  155.7203 C.3     1  UNL1        0.0576
     17 C         143.1827  144.7858  154.6117 C.3     1  UNL1        0.0160
     18 C         142.2350  145.4408  153.6512 C.3     1  UNL1        0.0028
     19 C         141.2422  145.6300  154.7596 C.3     1  UNL1        0.0160
     20 O         143.0999  140.9587  166.2109 O.3     1  UNL1       -0.4361
     21 C         141.2384  142.3587  169.4240 C.ar    1  UNL1        0.0715
     22 C         141.3095  141.1684  170.3340 C.ar    1  UNL1        0.0105
     23 C         141.9775  139.9082  169.8696 C.ar    1  UNL1        0.0038
     24 C         142.5743  139.8382  168.4952 C.ar    1  UNL1        0.0376
     25 C         142.5031  141.0286  167.5852 C.ar    1  UNL1        0.1479
     26 C         141.8352  142.2888  168.0496 C.ar    1  UNL1        0.0478
     27 N         139.9026  144.8792  170.3528 N.1     1  UNL1       -0.1908
     28 C         140.5705  143.6190  169.8884 C.1     1  UNL1        0.1005
@<TRIPOS>BOND
     1    27    28    3
     2    28    21    1
     3    21    22   ar
     4    22    23   ar
     5    23    24   ar
     6    24    25   ar
     7    25    20    1
     8    20     1    1
     9     1     2   ar
    10     2     3   ar
    11     3     4   ar
    12     4     7    1
    13     7     8    2
    14     7     9   am
    15     9    10    1
    16    10    11    1
    17    11    12    1
    18    12    13    1
    19    13    16    1
    20    16    17    1
    21    17    18    1
    22    18    19    1
    23    13    14    1
    24    14    15    1
    25     4     5   ar
    26     5     6   ar
    27    25    26   ar
    28    26    21   ar
    29     6     1   ar
    30    15     9    1
    31    19    16    1
@<TRIPOS>MOLECULE
*****
 28 31 0 0 0
SMALL
GASTEIGER

@<TRIPOS>ATOM
      1 C         139.4438  138.6071  161.0794 C.ar    1  UNL1        0.2297
      2 C         140.0055  138.3930  159.7051 C.ar    1  UNL1        0.0583
      3 C         139.5061  139.2153  158.5543 C.ar    1  UNL1        0.0109
      4 C         138.4449  140.2517  158.7778 C.ar    1  UNL1        0.0729
      5 C         137.8832  140.4658  160.1521 C.ar    1  UNL1        0.1065
      6 N         138.3827  139.6434  161.3029 N.ar    1  UNL1       -0.2097
      7 C         137.9455  141.0740  157.6270 C.2     1  UNL1        0.2506
      8 O         136.8765  140.5313  156.7255 O.2     1  UNL1       -0.2699
      9 N         138.5151  142.4390  157.3775 N.am    1  UNL1       -0.2746
     10 C         139.5782  142.8858  158.3369 C.3     1  UNL1        0.0952
     11 C         140.3351  144.1808  158.3574 C.3     1  UNL1        0.0388
     12 C         140.2159  145.3485  157.4237 C.3     1  UNL1        0.0739
     13 N         139.3103  145.5100  156.2388 N.3     1  UNL1       -0.2725
     14 C         138.3004  144.5435  155.6950 C.3     1  UNL1        0.0938
     15 C         137.9465  143.1767  156.2019 C.3     1  UNL1        0.1110
     16 C         139.4307  146.8099  155.5001 C.3     1  UNL1        0.0576
     17 C         138.8592  148.1858  155.6743 C.3     1  UNL1        0.0160
     18 C         139.6009  148.6482  154.4553 C.3     1  UNL1        0.0028
     19 C         140.1724  147.2724  154.2810 C.3     1  UNL1        0.0160
     20 O         139.9432  137.7848  162.2303 O.3     1  UNL1       -0.4361
     21 C         138.8199  138.5581  165.9571 C.ar    1  UNL1        0.0715
     22 C         139.9114  139.4893  166.3948 C.ar    1  UNL1        0.0105
     23 C         141.0135  139.8523  165.4442 C.ar    1  UNL1        0.0038
     24 C         141.0242  139.2841  164.0560 C.ar    1  UNL1        0.0376
     25 C         139.9326  138.3529  163.6184 C.ar    1  UNL1        0.1479
     26 C         138.8305  137.9900  164.5689 C.ar    1  UNL1        0.0478
     27 N         136.6156  137.8322  167.8582 N.1     1  UNL1       -0.1908
     28 C         137.7177  138.1952  166.9077 C.1     1  UNL1        0.1005
@<TRIPOS>BOND
     1    27    28    3
     2    28    21    1
     3    21    22   ar
     4    22    23   ar
     5    23    24   ar
     6    24    25   ar
     7    25    20    1
     8    20     1    1
     9     1     2   ar
    10     2     3   ar
    11     3     4   ar
    12     4     7    1
    13     7     8    2
    14     7     9   am
    15     9    10    1
    16    10    11    1
    17    11    12    1
    18    12    13    1
    19    13    16    1
    20    16    17    1
    21    17    18    1
    22    18    19    1
    23    13    14    1
    24    14    15    1
    25     4     5   ar
    26     5     6   ar
    27    25    26   ar
    28    26    21   ar
    29     6     1   ar
    30    15     9    1
    31    19    16    1
@<TRIPOS>MOLECULE
*****
 28 31 0 0 0
SMALL
GASTEIGER

@<TRIPOS>ATOM
      1 C         139.1147  139.6355  165.2597 C.ar    1  UNL1        0.2297
      2 C         138.0989  140.6909  164.9373 C.ar    1  UNL1        0.0583
      3 C         137.7339  140.9694  163.5093 C.ar    1  UNL1        0.0109
      4 C         138.3849  140.1923  162.4036 C.ar    1  UNL1        0.0729
      5 C         139.4008  139.1368  162.7260 C.ar    1  UNL1        0.1065
      6 N         139.7657  138.8584  164.1541 N.ar    1  UNL1       -0.2097
      7 C         138.0200  140.4708  160.9756 C.2     1  UNL1        0.2506
      8 O         137.0424  139.5827  160.2645 O.2     1  UNL1       -0.2699
      9 N         138.6325  141.6373  160.2587 N.am    1  UNL1       -0.2746
     10 C         139.5967  142.4605  161.0605 C.3     1  UNL1        0.0952
     11 C         140.3664  143.6762  160.6364 C.3     1  UNL1        0.0388
     12 C         140.3621  144.3687  159.3060 C.3     1  UNL1        0.0739
     13 N         139.5871  144.0169  158.0709 N.3     1  UNL1       -0.2725
     14 C         138.6248  142.8854  157.8613 C.3     1  UNL1        0.0938
     15 C         138.2001  141.8264  158.8350 C.3     1  UNL1        0.1110
     16 C         139.8027  144.9152  156.8892 C.3     1  UNL1        0.0576
     17 C         139.2807  144.9627  155.4837 C.3     1  UNL1        0.0160
     18 C         140.1077  146.1856  155.2179 C.3     1  UNL1        0.0028
     19 C         140.6297  146.1381  156.6233 C.3     1  UNL1        0.0160
     20 O         139.4797  139.3570  166.6878 O.3     1  UNL1       -0.4361
     21 C         140.9492  142.3401  168.8536 C.ar    1  UNL1        0.0715
     22 C         142.4142  142.0196  168.8205 C.ar    1  UNL1        0.0105
     23 C         142.9010  140.8116  168.0764 C.ar    1  UNL1        0.0038
     24 C         141.9228  139.9240  167.3655 C.ar    1  UNL1        0.0376
     25 C         140.4579  140.2445  167.3987 C.ar    1  UNL1        0.1479
     26 C         139.9710  141.4525  168.1427 C.ar    1  UNL1        0.0478
     27 N         139.9756  144.7562  170.3418 N.1     1  UNL1       -0.1908
     28 C         140.4624  143.5482  169.5978 C.1     1  UNL1        0.1005
@<TRIPOS>BOND
     1    27    28    3
     2    28    21    1
     3    21    22   ar
     4    22    23   ar
     5    23    24   ar
     6    24    25   ar
     7    25    20    1
     8    20     1    1
     9     1     2   ar
    10     2     3   ar
    11     3     4   ar
    12     4     7    1
    13     7     8    2
    14     7     9   am
    15     9    10    1
    16    10    11    1
    17    11    12    1
    18    12    13    1
    19    13    16    1
    20    16    17    1
    21    17    18    1
    22    18    19    1
    23    13    14    1
    24    14    15    1
    25     4     5   ar
    26     5     6   ar
    27    25    26   ar
    28    26    21   ar
    29     6     1   ar
    30    15     9    1
    31    19    16    1
@<TRIPOS>MOLECULE
*****
 28 31 0 0 0
SMALL
GASTEIGER

@<TRIPOS>ATOM
      1 C         142.2844  137.3826  156.8042 C.ar    1  UNL1        0.2297
      2 C         140.8282  137.5730  157.1096 C.ar    1  UNL1        0.0583
      3 C         140.4060  138.5340  158.1811 C.ar    1  UNL1        0.0109
      4 C         141.4401  139.3046  158.9473 C.ar    1  UNL1        0.0729
      5 C         142.8963  139.1141  158.6420 C.ar    1  UNL1        0.1065
      6 N         143.3184  138.1531  157.5704 N.ar    1  UNL1       -0.2097
      7 C         141.0179  140.2656  160.0189 C.2     1  UNL1        0.2506
      8 O         140.8811  141.7260  159.7051 O.2     1  UNL1       -0.2699
      9 N         140.7325  139.7662  161.4042 N.am    1  UNL1       -0.2746
     10 C         140.8995  138.2898  161.6110 C.3     1  UNL1        0.0952
     11 C         140.6931  137.4918  162.8643 C.3     1  UNL1        0.0388
     12 C         140.2688  137.9730  164.2201 C.3     1  UNL1        0.0739
     13 N         139.9460  139.3710  164.6577 N.3     1  UNL1       -0.2725
     14 C         139.9679  140.6331  163.8474 C.3     1  UNL1        0.0938
     15 C         140.3179  140.8089  162.3995 C.3     1  UNL1        0.1110
     16 C         139.5489  139.5275  166.0956 C.3     1  UNL1        0.0576
     17 C         138.3947  139.0634  166.9339 C.3     1  UNL1        0.0160
     18 C         138.9872  139.7489  168.1293 C.3     1  UNL1        0.0028
     19 C         140.1414  140.2131  167.2911 C.3     1  UNL1        0.0160
     20 O         142.7066  136.4215  155.7326 O.3     1  UNL1       -0.4361
     21 C         141.7665  132.5708  155.5390 C.ar    1  UNL1        0.0715
     22 C         142.7114  131.9970  156.5529 C.ar    1  UNL1        0.0105
     23 C         143.6547  132.8980  157.2933 C.ar    1  UNL1        0.0038
     24 C         143.6531  134.3729  157.0199 C.ar    1  UNL1        0.0376
     25 C         142.7082  134.9467  156.0060 C.ar    1  UNL1        0.1479
     26 C         141.7649  134.0457  155.2656 C.ar    1  UNL1        0.0478
     27 N         139.8799  130.7686  154.0582 N.1     1  UNL1       -0.1908
     28 C         140.8231  131.6697  154.7986 C.1     1  UNL1        0.1005
@<TRIPOS>BOND
     1    27    28    3
     2    28    21    1
     3    21    22   ar
     4    22    23   ar
     5    23    24   ar
     6    24    25   ar
     7    25    20    1
     8    20     1    1
     9     1     2   ar
    10     2     3   ar
    11     3     4   ar
    12     4     7    1
    13     7     8    2
    14     7     9   am
    15     9    10    1
    16    10    11    1
    17    11    12    1
    18    12    13    1
    19    13    16    1
    20    16    17    1
    21    17    18    1
    22    18    19    1
    23    13    14    1
    24    14    15    1
    25     4     5   ar
    26     5     6   ar
    27    25    26   ar
    28    26    21   ar
    29     6     1   ar
    30    15     9    1
    31    19    16    1
@<TRIPOS>MOLECULE
*****
 28 31 0 0 0
SMALL
GASTEIGER

@<TRIPOS>ATOM
      1 C         140.4488  144.1791  158.7813 C.ar    1  UNL1        0.2297
      2 C         140.2132  145.1680  159.8843 C.ar    1  UNL1        0.0583
      3 C         141.0722  145.1393  161.1135 C.ar    1  UNL1        0.0109
      4 C         142.1670  144.1215  161.2398 C.ar    1  UNL1        0.0729
      5 C         142.4026  143.1327  160.1369 C.ar    1  UNL1        0.1065
      6 N         141.5435  143.1615  158.9076 N.ar    1  UNL1       -0.2097
      7 C         143.0260  144.0928  162.4691 C.2     1  UNL1        0.2506
      8 O         144.2738  144.9229  162.5317 O.2     1  UNL1       -0.2699
      9 N         142.6374  143.2339  163.6358 N.am    1  UNL1       -0.2746
     10 C         141.3727  142.4444  163.4699 C.3     1  UNL1        0.0952
     11 C         140.7231  141.5040  164.4415 C.3     1  UNL1        0.0388
     12 C         141.1776  141.1210  165.8186 C.3     1  UNL1        0.0739
     13 N         142.3940  141.5836  166.5645 N.3     1  UNL1       -0.2725
     14 C         143.4563  142.5436  166.1175 C.3     1  UNL1        0.0938
     15 C         143.5645  143.2780  164.8140 C.3     1  UNL1        0.1110
     16 C         142.5715  141.0105  167.9393 C.3     1  UNL1        0.0576
     17 C         142.3217  139.6733  168.5714 C.3     1  UNL1        0.0160
     18 C         142.8226  140.2000  169.8835 C.3     1  UNL1        0.0028
     19 C         143.0724  141.5372  169.2515 C.3     1  UNL1        0.0160
     20 O         139.5897  144.2079  157.5520 O.3     1  UNL1       -0.4361
     21 C         139.4098  147.6276  155.5464 C.ar    1  UNL1        0.0715
     22 C         140.3027  147.3201  154.3809 C.ar    1  UNL1        0.0105
     23 C         140.9578  145.9751  154.2725 C.ar    1  UNL1        0.0038
     24 C         140.7202  144.9376  155.3295 C.ar    1  UNL1        0.0376
     25 C         139.8273  145.2453  156.4949 C.ar    1  UNL1        0.1479
     26 C         139.1722  146.5902  156.6034 C.ar    1  UNL1        0.0478
     27 N         138.0996  150.3176  155.7632 N.1     1  UNL1       -0.1908
     28 C         138.7547  148.9727  155.6548 C.1     1  UNL1        0.1005
@<TRIPOS>BOND
     1    27    28    3
     2    28    21    1
     3    21    22   ar
     4    22    23   ar
     5    23    24   ar
     6    24    25   ar
     7    25    20    1
     8    20     1    1
     9     1     2   ar
    10     2     3   ar
    11     3     4   ar
    12     4     7    1
    13     7     8    2
    14     7     9   am
    15     9    10    1
    16    10    11    1
    17    11    12    1
    18    12    13    1
    19    13    16    1
    20    16    17    1
    21    17    18    1
    22    18    19    1
    23    13    14    1
    24    14    15    1
    25     4     5   ar
    26     5     6   ar
    27    25    26   ar
    28    26    21   ar
    29     6     1   ar
    30    15     9    1
    31    19    16    1
@<TRIPOS>MOLECULE
*****
 28 31 0 0 0
SMALL
GASTEIGER

@<TRIPOS>ATOM
      1 C         142.6712  141.5411  165.3756 C.ar    1  UNL1        0.2297
      2 C         141.5581  142.5456  165.3322 C.ar    1  UNL1        0.0583
      3 C         141.2016  143.2147  164.0380 C.ar    1  UNL1        0.0109
      4 C         141.9583  142.8793  162.7869 C.ar    1  UNL1        0.0729
      5 C         143.0714  141.8748  162.8303 C.ar    1  UNL1        0.1065
      6 N         143.4279  141.2057  164.1246 N.ar    1  UNL1       -0.2097
      7 C         141.6018  143.5484  161.4927 C.2     1  UNL1        0.2506
      8 O         142.3246  144.7919  161.0673 O.2     1  UNL1       -0.2699
      9 N         140.5224  142.9739  160.6238 N.am    1  UNL1       -0.2746
     10 C         139.8636  141.7296  161.1414 C.3     1  UNL1        0.0952
     11 C         138.7642  140.9238  160.5152 C.3     1  UNL1        0.0388
     12 C         138.0522  141.1632  159.2169 C.3     1  UNL1        0.0739
     13 N         138.2637  142.2674  158.2240 N.3     1  UNL1       -0.2725
     14 C         139.2394  143.4051  158.2842 C.3     1  UNL1        0.0938
     15 C         140.2446  143.7195  159.3523 C.3     1  UNL1        0.1110
     16 C         137.3830  142.2289  157.0104 C.3     1  UNL1        0.0576
     17 C         136.4126  141.2403  156.4349 C.3     1  UNL1        0.0160
     18 C         136.1374  142.1745  155.2941 C.3     1  UNL1        0.0028
     19 C         137.1077  143.1632  155.8695 C.3     1  UNL1        0.0160
     20 O         143.0277  140.8720  166.6699 O.3     1  UNL1       -0.4361
     21 C         140.4330  141.0765  169.6657 C.ar    1  UNL1        0.0715
     22 C         141.0424  142.1682  170.4945 C.ar    1  UNL1        0.0105
     23 C         142.3135  142.8278  170.0484 C.ar    1  UNL1        0.0038
     24 C         142.9754  142.3958  168.7735 C.ar    1  UNL1        0.0376
     25 C         142.3659  141.3041  167.9448 C.ar    1  UNL1        0.1479
     26 C         141.0948  140.6444  168.3908 C.ar    1  UNL1        0.0478
     27 N         137.8907  139.7573  170.5580 N.1     1  UNL1       -0.1908
     28 C         139.1618  140.4169  170.1119 C.1     1  UNL1        0.1005
@<TRIPOS>BOND
     1    27    28    3
     2    28    21    1
     3    21    22   ar
     4    22    23   ar
     5    23    24   ar
     6    24    25   ar
     7    25    20    1
     8    20     1    1
     9     1     2   ar
    10     2     3   ar
    11     3     4   ar
    12     4     7    1
    13     7     8    2
    14     7     9   am
    15     9    10    1
    16    10    11    1
    17    11    12    1
    18    12    13    1
    19    13    16    1
    20    16    17    1
    21    17    18    1
    22    18    19    1
    23    13    14    1
    24    14    15    1
    25     4     5   ar
    26     5     6   ar
    27    25    26   ar
    28    26    21   ar
    29     6     1   ar
    30    15     9    1
    31    19    16    1
