@<TRIPOS>MOLECULE
*****
 40 44 0 0 0
SMALL
GASTEIGER

@<TRIPOS>ATOM
      1 C         142.7992  141.3084  164.9139 C.3     1  UNL1        0.0001
      2 C         143.4503  140.3483  163.9629 C.3     1  UNL1        0.0000
      3 C         143.1999  138.8753  164.0956 C.3     1  UNL1        0.0000
      4 C         142.1139  138.3779  165.0031 C.3     1  UNL1        0.0000
      5 C         141.2457  137.2319  164.5756 C.3     1  UNL1        0.0014
      6 C         140.0921  137.4706  163.6471 C.3     1  UNL1        0.0171
      7 C         139.6004  138.8669  163.4053 C.3     1  UNL1        0.0685
      8 N         138.4955  139.4297  164.2495 N.3     1  UNL1       -0.2982
      9 H         138.1948  140.2955  163.8019 H       1  UNL1        0.1232
     10 O         140.6117  142.2063  171.8364 O.2     1  UNL1       -0.2726
     11 C         140.3627  141.8838  170.3928 C.2     1  UNL1        0.2497
     12 C         140.9848  142.7253  169.3182 C.3     1  UNL1        0.1129
     13 C         140.7357  142.4028  167.8746 C.2     1  UNL1       -0.0198
     14 C         139.8646  141.2387  167.5056 C.2     1  UNL1       -0.0134
     15 C         139.2426  140.3972  168.5802 C.2     1  UNL1        0.0468
     16 N         139.4916  140.7198  170.0238 N.am    1  UNL1       -0.1836
     17 C         138.3714  139.2331  168.2113 C.3     1  UNL1        0.0443
     18 C         138.1224  138.9106  166.7677 C.3     1  UNL1        0.0221
     19 C         138.7445  139.7522  165.6931 C.3     1  UNL1        0.0588
     20 C         139.6156  140.9162  166.0620 C.3     1  UNL1        0.0427
     21 C         143.5736  142.4772  165.4471 C.3     1  UNL1        0.0017
     22 C         144.2995  143.3894  164.5031 C.3     1  UNL1        0.0212
     23 C         143.7927  144.7812  164.2668 C.3     1  UNL1        0.0870
     24 N         142.8833  145.0615  163.1072 N.pl3   1  UNL1       -0.3328
     25 H         142.9212  145.9333  162.6514 H       1  UNL1        0.1468
     26 C         141.9163  144.0133  162.6421 C.ar    1  UNL1        0.0431
     27 C         140.5482  143.9316  163.2518 C.ar    1  UNL1        0.0045
     28 C         139.5812  142.8835  162.7867 C.ar    1  UNL1        0.0561
     29 N         139.9823  141.9171  161.7118 N.ar    1  UNL1       -0.2499
     30 C         141.3503  141.9989  161.1021 C.ar    1  UNL1        0.0829
     31 C         141.7514  141.0325  160.0273 C.ar    1  UNL1        0.0305
     32 C         143.1194  141.1142  159.4175 C.ar    1  UNL1        0.0592
     33 CL        143.5204  140.1479  158.3427 Cl      1  UNL1       -0.0822
     34 C         144.0864  142.1624  159.8827 C.ar    1  UNL1        0.0115
     35 C         143.6854  143.1287  160.9575 C.ar    1  UNL1        0.0036
     36 C         142.3173  143.0470  161.5672 C.ar    1  UNL1        0.0305
     37 C         138.2132  142.8017  163.3964 C.3     1  UNL1        0.0455
     38 C         137.8122  143.7681  164.4713 C.3     1  UNL1        0.0066
     39 C         138.7792  144.8162  164.9364 C.3     1  UNL1        0.0052
     40 C         140.1472  144.8980  164.3267 C.3     1  UNL1        0.0288
@<TRIPOS>BOND
     1    10    11    2
     2    11    12    1
     3    12    13    1
     4    13    14    2
     5    14    15    1
     6    15    16    2
     7    15    17    1
     8    17    18    1
     9    18    19    1
    10    19     8    1
    11     8     7    1
    12     7     6    1
    13     6     5    1
    14     5     4    1
    15     4     3    1
    16     3     2    1
    17     2     1    1
    18     1    21    1
    19    21    22    1
    20    22    23    1
    21    23    24    1
    22    24    26    1
    23    26    27   ar
    24    27    28   ar
    25    28    29   ar
    26    29    30   ar
    27    30    31   ar
    28    31    32   ar
    29    32    33    1
    30    32    34   ar
    31    34    35   ar
    32    35    36   ar
    33    28    37    1
    34    37    38    1
    35    38    39    1
    36    39    40    1
    37    19    20    1
    38    16    11    1
    39    36    26   ar
    40    20    14    1
    41    40    27    1
    42    36    30   ar
    43     8     9    1
    44    24    25    1
@<TRIPOS>MOLECULE
*****
 40 44 0 0 0
SMALL
GASTEIGER

@<TRIPOS>ATOM
      1 C         137.4357  141.9989  163.4889 C.3     1  UNL1        0.0001
      2 C         137.7451  142.9634  164.5952 C.3     1  UNL1        0.0000
      3 C         138.1208  144.3793  164.2726 C.3     1  UNL1        0.0000
      4 C         138.8446  144.6910  162.9962 C.3     1  UNL1        0.0000
      5 C         140.2524  144.2134  162.7965 C.3     1  UNL1        0.0014
      6 C         141.4034  145.0579  163.2569 C.3     1  UNL1        0.0171
      7 C         142.7663  144.4501  163.4081 C.3     1  UNL1        0.0685
      8 N         142.9064  142.9843  163.6941 N.3     1  UNL1       -0.2982
      9 H         142.3244  142.4947  163.0144 H       1  UNL1        0.1232
     10 O         139.7844  139.5507  170.6378 O.2     1  UNL1       -0.2726
     11 C         140.1506  140.0895  169.2866 C.2     1  UNL1        0.2497
     12 C         139.2255  139.8883  168.1231 C.3     1  UNL1        0.1129
     13 C         139.5916  140.4271  166.7719 C.2     1  UNL1       -0.0198
     14 C         140.8828  141.1669  166.5842 C.2     1  UNL1       -0.0134
     15 C         141.8079  141.3681  167.7477 C.2     1  UNL1        0.0468
     16 N         141.4418  140.8293  169.0989 N.am    1  UNL1       -0.1836
     17 C         143.0992  142.1080  167.5600 C.3     1  UNL1        0.0443
     18 C         143.4654  142.6467  166.2088 C.3     1  UNL1        0.0221
     19 C         142.5402  142.4456  165.0453 C.3     1  UNL1        0.0588
     20 C         141.2490  141.7057  165.2330 C.3     1  UNL1        0.0427
     21 C         137.7919  140.5493  163.6362 C.3     1  UNL1        0.0017
     22 C         138.9411  139.9769  162.8606 C.3     1  UNL1        0.0212
     23 C         138.8523  138.5865  162.3048 C.3     1  UNL1        0.0870
     24 N         140.0834  137.7340  162.2166 N.pl3   1  UNL1       -0.3328
     25 H         140.0057  136.7529  162.2427 H       1  UNL1        0.1468
     26 C         141.4329  138.3763  162.0887 C.ar    1  UNL1        0.0431
     27 C         142.3030  138.5408  163.2995 C.ar    1  UNL1        0.0045
     28 C         143.6525  139.1831  163.1716 C.ar    1  UNL1        0.0561
     29 N         144.1318  139.6609  161.8329 N.ar    1  UNL1       -0.2499
     30 C         143.2617  139.4964  160.6222 C.ar    1  UNL1        0.0829
     31 C         143.7411  139.9741  159.2835 C.ar    1  UNL1        0.0305
     32 C         142.8709  139.8096  158.0728 C.ar    1  UNL1        0.0592
     33 CL        143.3503  140.2873  156.7342 Cl      1  UNL1       -0.0822
     34 C         141.5215  139.1673  158.2007 C.ar    1  UNL1        0.0115
     35 C         141.0421  138.6895  159.5393 C.ar    1  UNL1        0.0036
     36 C         141.9122  138.8540  160.7501 C.ar    1  UNL1        0.0305
     37 C         144.5226  139.3477  164.3822 C.3     1  UNL1        0.0455
     38 C         144.0432  138.8699  165.7208 C.3     1  UNL1        0.0066
     39 C         142.6937  138.2276  165.8488 C.3     1  UNL1        0.0052
     40 C         141.8236  138.0631  164.6381 C.3     1  UNL1        0.0288
@<TRIPOS>BOND
     1    10    11    2
     2    11    12    1
     3    12    13    1
     4    13    14    2
     5    14    15    1
     6    15    16    2
     7    15    17    1
     8    17    18    1
     9    18    19    1
    10    19     8    1
    11     8     7    1
    12     7     6    1
    13     6     5    1
    14     5     4    1
    15     4     3    1
    16     3     2    1
    17     2     1    1
    18     1    21    1
    19    21    22    1
    20    22    23    1
    21    23    24    1
    22    24    26    1
    23    26    27   ar
    24    27    28   ar
    25    28    29   ar
    26    29    30   ar
    27    30    31   ar
    28    31    32   ar
    29    32    33    1
    30    32    34   ar
    31    34    35   ar
    32    35    36   ar
    33    28    37    1
    34    37    38    1
    35    38    39    1
    36    39    40    1
    37    19    20    1
    38    16    11    1
    39    36    26   ar
    40    20    14    1
    41    40    27    1
    42    36    30   ar
    43     8     9    1
    44    24    25    1
@<TRIPOS>MOLECULE
*****
 40 44 0 0 0
SMALL
GASTEIGER

@<TRIPOS>ATOM
      1 C         138.4806  142.1189  164.5079 C.3     1  UNL1        0.0001
      2 C         138.9803  141.2785  163.3704 C.3     1  UNL1        0.0000
      3 C         140.2927  141.6012  162.7196 C.3     1  UNL1        0.0000
      4 C         140.8245  140.7214  161.6272 C.3     1  UNL1        0.0000
      5 C         140.0250  139.5423  161.1577 C.3     1  UNL1        0.0014
      6 C         140.7173  138.2594  160.8044 C.3     1  UNL1        0.0171
      7 C         141.6863  137.6402  161.7676 C.3     1  UNL1        0.0685
      8 N         141.1827  136.9712  163.0122 N.3     1  UNL1       -0.2982
      9 H         140.3792  136.4059  162.7381 H       1  UNL1        0.1232
     10 O         139.9661  142.0985  169.4915 O.2     1  UNL1       -0.2726
     11 C         140.3991  141.2707  168.3179 C.2     1  UNL1        0.2497
     12 C         141.7804  141.4312  167.7557 C.3     1  UNL1        0.1129
     13 C         142.2134  140.6035  166.5821 C.2     1  UNL1       -0.0198
     14 C         141.2650  139.6151  165.9707 C.2     1  UNL1       -0.0134
     15 C         139.8837  139.4546  166.5330 C.2     1  UNL1        0.0468
     16 N         139.4507  140.2823  167.7065 N.am    1  UNL1       -0.1836
     17 C         138.9353  138.4662  165.9216 C.3     1  UNL1        0.0443
     18 C         139.3683  137.6384  164.7480 C.3     1  UNL1        0.0221
     19 C         140.7497  137.7990  164.1858 C.3     1  UNL1        0.0588
     20 C         141.6980  138.7874  164.7971 C.3     1  UNL1        0.0427
     21 C         139.4228  143.0291  165.2384 C.3     1  UNL1        0.0017
     22 C         139.3441  144.5127  165.0316 C.3     1  UNL1        0.0212
     23 C         139.5809  145.0936  163.6690 C.3     1  UNL1        0.0870
     24 N         140.9496  145.5731  163.2857 N.pl3   1  UNL1       -0.3328
     25 H         141.2681  146.4516  163.5956 H       1  UNL1        0.1468
     26 C         141.8329  144.7141  162.4302 C.ar    1  UNL1        0.0431
     27 C         142.9423  143.9219  163.0560 C.ar    1  UNL1        0.0045
     28 C         143.8256  143.0629  162.2005 C.ar    1  UNL1        0.0561
     29 N         143.5994  142.9961  160.7191 N.ar    1  UNL1       -0.2499
     30 C         142.4901  143.7883  160.0933 C.ar    1  UNL1        0.0829
     31 C         142.2639  143.7215  158.6119 C.ar    1  UNL1        0.0305
     32 C         141.1545  144.5137  157.9861 C.ar    1  UNL1        0.0592
     33 CL        140.9284  144.4469  156.5048 Cl      1  UNL1       -0.0822
     34 C         140.2712  145.3727  158.8416 C.ar    1  UNL1        0.0115
     35 C         140.4973  145.4395  160.3230 C.ar    1  UNL1        0.0036
     36 C         141.6068  144.6473  160.9488 C.ar    1  UNL1        0.0305
     37 C         144.9350  142.2707  162.8263 C.3     1  UNL1        0.0455
     38 C         145.1611  142.3376  164.3076 C.3     1  UNL1        0.0066
     39 C         144.2778  143.1965  165.1631 C.3     1  UNL1        0.0052
     40 C         143.1684  143.9887  164.5373 C.3     1  UNL1        0.0288
@<TRIPOS>BOND
     1    10    11    2
     2    11    12    1
     3    12    13    1
     4    13    14    2
     5    14    15    1
     6    15    16    2
     7    15    17    1
     8    17    18    1
     9    18    19    1
    10    19     8    1
    11     8     7    1
    12     7     6    1
    13     6     5    1
    14     5     4    1
    15     4     3    1
    16     3     2    1
    17     2     1    1
    18     1    21    1
    19    21    22    1
    20    22    23    1
    21    23    24    1
    22    24    26    1
    23    26    27   ar
    24    27    28   ar
    25    28    29   ar
    26    29    30   ar
    27    30    31   ar
    28    31    32   ar
    29    32    33    1
    30    32    34   ar
    31    34    35   ar
    32    35    36   ar
    33    28    37    1
    34    37    38    1
    35    38    39    1
    36    39    40    1
    37    19    20    1
    38    16    11    1
    39    36    26   ar
    40    20    14    1
    41    40    27    1
    42    36    30   ar
    43     8     9    1
    44    24    25    1
@<TRIPOS>MOLECULE
*****
 40 44 0 0 0
SMALL
GASTEIGER

@<TRIPOS>ATOM
      1 C         140.0401  144.7181  164.3713 C.3     1  UNL1        0.0001
      2 C         141.1414  144.0512  163.6017 C.3     1  UNL1        0.0000
      3 C         142.5551  144.1268  164.0973 C.3     1  UNL1        0.0000
      4 C         143.0255  143.1882  165.1686 C.3     1  UNL1        0.0000
      5 C         144.4795  142.8336  165.2697 C.3     1  UNL1        0.0014
      6 C         145.2716  142.5550  164.0268 C.3     1  UNL1        0.0171
      7 C         145.7495  141.1627  163.7383 C.3     1  UNL1        0.0685
      8 N         144.8109  140.0019  163.8860 N.3     1  UNL1       -0.2982
      9 H         145.3884  139.1673  163.9874 H       1  UNL1        0.1232
     10 O         138.6040  139.4167  158.3289 O.2     1  UNL1       -0.2726
     11 C         139.6067  139.7120  159.4047 C.2     1  UNL1        0.2497
     12 C         139.4162  140.8986  160.3023 C.3     1  UNL1        0.1129
     13 C         140.4189  141.1938  161.3781 C.2     1  UNL1       -0.0198
     14 C         141.6122  140.3026  161.5563 C.2     1  UNL1       -0.0134
     15 C         141.8027  139.1161  160.6586 C.2     1  UNL1        0.0468
     16 N         140.8000  138.8208  159.5828 N.am    1  UNL1       -0.1836
     17 C         142.9960  138.2247  160.8368 C.3     1  UNL1        0.0443
     18 C         143.9987  138.5200  161.9126 C.3     1  UNL1        0.0221
     19 C         143.8081  139.7066  162.8102 C.3     1  UNL1        0.0588
     20 C         142.6149  140.5979  162.6321 C.3     1  UNL1        0.0427
     21 C         138.6368  144.6988  163.8418 C.3     1  UNL1        0.0017
     22 C         137.7031  143.5916  164.2320 C.3     1  UNL1        0.0212
     23 C         138.1246  142.1616  164.0661 C.3     1  UNL1        0.0870
     24 N         138.1808  141.2532  165.2585 N.pl3   1  UNL1       -0.3328
     25 H         137.3688  141.0880  165.7901 H       1  UNL1        0.1468
     26 C         139.4741  140.5965  165.6407 C.ar    1  UNL1        0.0431
     27 C         139.9218  139.3526  164.9318 C.ar    1  UNL1        0.0045
     28 C         141.2152  138.6959  165.3141 C.ar    1  UNL1        0.0561
     29 N         142.0607  139.2831  166.4052 N.ar    1  UNL1       -0.2499
     30 C         141.6129  140.5268  167.1140 C.ar    1  UNL1        0.0829
     31 C         142.4584  141.1140  168.2051 C.ar    1  UNL1        0.0305
     32 C         142.0106  142.3577  168.9139 C.ar    1  UNL1        0.0592
     33 CL        142.8561  142.9448  170.0050 Cl      1  UNL1       -0.0822
     34 C         140.7173  143.0144  168.5317 C.ar    1  UNL1        0.0115
     35 C         139.8718  142.4274  167.4406 C.ar    1  UNL1        0.0036
     36 C         140.3196  141.1835  166.7318 C.ar    1  UNL1        0.0305
     37 C         141.6630  137.4521  164.6053 C.3     1  UNL1        0.0455
     38 C         140.8175  136.8651  163.5142 C.3     1  UNL1        0.0066
     39 C         139.5242  137.5218  163.1320 C.3     1  UNL1        0.0052
     40 C         139.0764  138.7656  163.8408 C.3     1  UNL1        0.0288
@<TRIPOS>BOND
     1    10    11    2
     2    11    12    1
     3    12    13    1
     4    13    14    2
     5    14    15    1
     6    15    16    2
     7    15    17    1
     8    17    18    1
     9    18    19    1
    10    19     8    1
    11     8     7    1
    12     7     6    1
    13     6     5    1
    14     5     4    1
    15     4     3    1
    16     3     2    1
    17     2     1    1
    18     1    21    1
    19    21    22    1
    20    22    23    1
    21    23    24    1
    22    24    26    1
    23    26    27   ar
    24    27    28   ar
    25    28    29   ar
    26    29    30   ar
    27    30    31   ar
    28    31    32   ar
    29    32    33    1
    30    32    34   ar
    31    34    35   ar
    32    35    36   ar
    33    28    37    1
    34    37    38    1
    35    38    39    1
    36    39    40    1
    37    19    20    1
    38    16    11    1
    39    36    26   ar
    40    20    14    1
    41    40    27    1
    42    36    30   ar
    43     8     9    1
    44    24    25    1
@<TRIPOS>MOLECULE
*****
 40 44 0 0 0
SMALL
GASTEIGER

@<TRIPOS>ATOM
      1 C         138.5321  140.0514  164.8016 C.3     1  UNL1        0.0001
      2 C         137.7588  139.8429  163.5334 C.3     1  UNL1        0.0000
      3 C         137.7908  140.8855  162.4554 C.3     1  UNL1        0.0000
      4 C         138.7248  142.0537  162.5693 C.3     1  UNL1        0.0000
      5 C         138.2590  143.4267  162.1846 C.3     1  UNL1        0.0014
      6 C         137.7452  144.3661  163.2351 C.3     1  UNL1        0.0171
      7 C         138.2853  144.2962  164.6327 C.3     1  UNL1        0.0685
      8 N         139.7582  144.4437  164.8758 N.3     1  UNL1       -0.2982
      9 H         140.1989  144.5446  163.9615 H       1  UNL1        0.1232
     10 O         142.9581  138.4843  169.7744 O.2     1  UNL1       -0.2726
     11 C         142.2065  139.5600  169.0477 C.2     1  UNL1        0.2497
     12 C         140.8968  140.0545  169.5862 C.3     1  UNL1        0.1129
     13 C         140.1451  141.1301  168.8595 C.2     1  UNL1       -0.0198
     14 C         140.7033  141.7113  167.5943 C.2     1  UNL1       -0.0134
     15 C         142.0130  141.2168  167.0559 C.2     1  UNL1        0.0468
     16 N         142.7646  140.1411  167.7825 N.am    1  UNL1       -0.1836
     17 C         142.5712  141.7980  165.7906 C.3     1  UNL1        0.0443
     18 C         141.8196  142.8736  165.0639 C.3     1  UNL1        0.0221
     19 C         140.5098  143.3681  165.6025 C.3     1  UNL1        0.0588
     20 C         139.9517  142.7869  166.8677 C.3     1  UNL1        0.0427
     21 C         139.7229  139.1909  165.1041 C.3     1  UNL1        0.0017
     22 C         139.8921  137.8729  164.4082 C.3     1  UNL1        0.0212
     23 C         141.2631  137.2939  164.2214 C.3     1  UNL1        0.0870
     24 N         141.9587  137.4246  162.8988 N.pl3   1  UNL1       -0.3328
     25 H         142.2904  136.6218  162.4356 H       1  UNL1        0.1468
     26 C         142.1490  138.7787  162.2822 C.ar    1  UNL1        0.0431
     27 C         143.2851  139.6520  162.7258 C.ar    1  UNL1        0.0045
     28 C         143.4754  141.0060  162.1091 C.ar    1  UNL1        0.0561
     29 N         142.5295  141.4868  161.0488 N.ar    1  UNL1       -0.2499
     30 C         141.3935  140.6136  160.6052 C.ar    1  UNL1        0.0829
     31 C         140.4477  141.0944  159.5448 C.ar    1  UNL1        0.0305
     32 C         139.3116  140.2212  159.1012 C.ar    1  UNL1        0.0592
     33 CL        138.3659  140.7020  158.0409 Cl      1  UNL1       -0.0822
     34 C         139.1214  138.8671  159.7179 C.ar    1  UNL1        0.0115
     35 C         140.0671  138.3863  160.7782 C.ar    1  UNL1        0.0036
     36 C         141.2032  139.2595  161.2219 C.ar    1  UNL1        0.0305
     37 C         144.6114  141.8793  162.5528 C.3     1  UNL1        0.0455
     38 C         145.5572  141.3985  163.6131 C.3     1  UNL1        0.0066
     39 C         145.3669  140.0444  164.2298 C.3     1  UNL1        0.0052
     40 C         144.2309  139.1711  163.7861 C.3     1  UNL1        0.0288
@<TRIPOS>BOND
     1    10    11    2
     2    11    12    1
     3    12    13    1
     4    13    14    2
     5    14    15    1
     6    15    16    2
     7    15    17    1
     8    17    18    1
     9    18    19    1
    10    19     8    1
    11     8     7    1
    12     7     6    1
    13     6     5    1
    14     5     4    1
    15     4     3    1
    16     3     2    1
    17     2     1    1
    18     1    21    1
    19    21    22    1
    20    22    23    1
    21    23    24    1
    22    24    26    1
    23    26    27   ar
    24    27    28   ar
    25    28    29   ar
    26    29    30   ar
    27    30    31   ar
    28    31    32   ar
    29    32    33    1
    30    32    34   ar
    31    34    35   ar
    32    35    36   ar
    33    28    37    1
    34    37    38    1
    35    38    39    1
    36    39    40    1
    37    19    20    1
    38    16    11    1
    39    36    26   ar
    40    20    14    1
    41    40    27    1
    42    36    30   ar
    43     8     9    1
    44    24    25    1
@<TRIPOS>MOLECULE
*****
 40 44 0 0 0
SMALL
GASTEIGER

@<TRIPOS>ATOM
      1 C         138.9451  141.2305  163.5182 C.3     1  UNL1        0.0001
      2 C         137.9979  142.0643  162.7075 C.3     1  UNL1        0.0000
      3 C         137.7425  143.4928  163.0875 C.3     1  UNL1        0.0000
      4 C         138.0804  143.9736  164.4676 C.3     1  UNL1        0.0000
      5 C         139.3000  144.8182  164.6899 C.3     1  UNL1        0.0014
      6 C         140.6637  144.2480  164.4350 C.3     1  UNL1        0.0171
      7 C         141.7600  145.1297  163.9144 C.3     1  UNL1        0.0685
      8 N         142.1857  145.0290  162.4796 N.3     1  UNL1       -0.2982
      9 H         142.0713  145.9573  162.0727 H       1  UNL1        0.1232
     10 O         139.1322  138.7586  157.8853 O.2     1  UNL1       -0.2726
     11 C         139.8200  139.7228  158.8058 C.2     1  UNL1        0.2497
     12 C         140.8930  139.2373  159.7347 C.3     1  UNL1        0.1129
     13 C         141.5807  140.2014  160.6553 C.2     1  UNL1       -0.0198
     14 C         141.1955  141.6511  160.6469 C.2     1  UNL1       -0.0134
     15 C         140.1225  142.1365  159.7180 C.2     1  UNL1        0.0468
     16 N         139.4347  141.1724  158.7974 N.am    1  UNL1       -0.1836
     17 C         139.7372  143.5862  159.7096 C.3     1  UNL1        0.0443
     18 C         140.4249  144.5504  160.6301 C.3     1  UNL1        0.0221
     19 C         141.4980  144.0649  161.5590 C.3     1  UNL1        0.0588
     20 C         141.8832  142.6152  161.5674 C.3     1  UNL1        0.0427
     21 C         138.4311  140.0591  164.3016 C.3     1  UNL1        0.0017
     22 C         139.0199  138.6964  164.0864 C.3     1  UNL1        0.0212
     23 C         140.4980  138.5416  163.8831 C.3     1  UNL1        0.0870
     24 N         141.4257  138.5852  165.0611 N.pl3   1  UNL1       -0.3328
     25 H         141.6797  137.7514  165.5188 H       1  UNL1        0.1468
     26 C         141.9663  139.8993  165.5416 C.ar    1  UNL1        0.0431
     27 C         143.0922  140.5618  164.8043 C.ar    1  UNL1        0.0045
     28 C         143.6329  141.8758  165.2849 C.ar    1  UNL1        0.0561
     29 N         143.0477  142.5274  166.5027 N.ar    1  UNL1       -0.2499
     30 C         141.9219  141.8649  167.2400 C.ar    1  UNL1        0.0829
     31 C         141.3367  142.5164  168.4579 C.ar    1  UNL1        0.0305
     32 C         140.2109  141.8539  169.1951 C.ar    1  UNL1        0.0592
     33 CL        139.6257  142.5054  170.4129 Cl      1  UNL1       -0.0822
     34 C         139.6702  140.5398  168.7146 C.ar    1  UNL1        0.0115
     35 C         140.2553  139.8883  167.4968 C.ar    1  UNL1        0.0036
     36 C         141.3812  140.5508  166.7594 C.ar    1  UNL1        0.0305
     37 C         144.7587  142.5384  164.5476 C.3     1  UNL1        0.0455
     38 C         145.3438  141.8868  163.3298 C.3     1  UNL1        0.0066
     39 C         144.8031  140.5728  162.8493 C.3     1  UNL1        0.0052
     40 C         143.6773  139.9103  163.5865 C.3     1  UNL1        0.0288
@<TRIPOS>BOND
     1    10    11    2
     2    11    12    1
     3    12    13    1
     4    13    14    2
     5    14    15    1
     6    15    16    2
     7    15    17    1
     8    17    18    1
     9    18    19    1
    10    19     8    1
    11     8     7    1
    12     7     6    1
    13     6     5    1
    14     5     4    1
    15     4     3    1
    16     3     2    1
    17     2     1    1
    18     1    21    1
    19    21    22    1
    20    22    23    1
    21    23    24    1
    22    24    26    1
    23    26    27   ar
    24    27    28   ar
    25    28    29   ar
    26    29    30   ar
    27    30    31   ar
    28    31    32   ar
    29    32    33    1
    30    32    34   ar
    31    34    35   ar
    32    35    36   ar
    33    28    37    1
    34    37    38    1
    35    38    39    1
    36    39    40    1
    37    19    20    1
    38    16    11    1
    39    36    26   ar
    40    20    14    1
    41    40    27    1
    42    36    30   ar
    43     8     9    1
    44    24    25    1
@<TRIPOS>MOLECULE
*****
 40 44 0 0 0
SMALL
GASTEIGER

@<TRIPOS>ATOM
      1 C         137.7583  142.0699  162.4746 C.3     1  UNL1        0.0001
      2 C         138.9841  142.1550  163.3350 C.3     1  UNL1        0.0000
      3 C         138.8484  142.3276  164.8188 C.3     1  UNL1        0.0000
      4 C         139.9479  142.9826  165.6013 C.3     1  UNL1        0.0000
      5 C         141.2202  143.3837  164.9155 C.3     1  UNL1        0.0014
      6 C         141.3587  144.7608  164.3375 C.3     1  UNL1        0.0171
      7 C         142.4814  145.0677  163.3913 C.3     1  UNL1        0.0685
      8 N         142.2219  145.1320  161.9152 N.3     1  UNL1       -0.2982
      9 H         141.4890  145.8274  161.7751 H       1  UNL1        0.1232
     10 O         138.8537  138.9900  157.3676 O.2     1  UNL1       -0.2726
     11 C         139.2791  140.2228  158.1087 C.2     1  UNL1        0.2497
     12 C         138.4634  141.4775  158.0078 C.3     1  UNL1        0.1129
     13 C         138.8888  142.7103  158.7489 C.2     1  UNL1       -0.0198
     14 C         140.1300  142.6884  159.5910 C.2     1  UNL1       -0.0134
     15 C         140.9457  141.4336  159.6919 C.2     1  UNL1        0.0468
     16 N         140.5203  140.2009  158.9508 N.am    1  UNL1       -0.1836
     17 C         142.1869  141.4117  160.5340 C.3     1  UNL1        0.0443
     18 C         142.6123  142.6445  161.2751 C.3     1  UNL1        0.0221
     19 C         141.7965  143.8992  161.1741 C.3     1  UNL1        0.0588
     20 C         140.5554  143.9212  160.3321 C.3     1  UNL1        0.0427
     21 C         137.4318  140.7930  161.7584 C.3     1  UNL1        0.0017
     22 C         138.4474  139.6915  161.6885 C.3     1  UNL1        0.0212
     23 C         138.0701  138.2968  162.0915 C.3     1  UNL1        0.0870
     24 N         139.0090  137.4775  162.9266 N.pl3   1  UNL1       -0.3328
     25 H         138.8871  136.5027  162.9916 H       1  UNL1        0.1468
     26 C         140.1337  138.1434  163.6626 C.ar    1  UNL1        0.0431
     27 C         141.4858  138.2562  163.0229 C.ar    1  UNL1        0.0045
     28 C         142.6105  138.9221  163.7589 C.ar    1  UNL1        0.0561
     29 N         142.3831  139.4751  165.1346 N.ar    1  UNL1       -0.2499
     30 C         141.0310  139.3623  165.7743 C.ar    1  UNL1        0.0829
     31 C         140.8036  139.9153  167.1500 C.ar    1  UNL1        0.0305
     32 C         139.4515  139.8024  167.7896 C.ar    1  UNL1        0.0592
     33 CL        139.2242  140.3554  169.1653 Cl      1  UNL1       -0.0822
     34 C         138.3269  139.1365  167.0536 C.ar    1  UNL1        0.0115
     35 C         138.5542  138.5835  165.6780 C.ar    1  UNL1        0.0036
     36 C         139.9063  138.6964  165.0383 C.ar    1  UNL1        0.0305
     37 C         143.9625  139.0350  163.1193 C.3     1  UNL1        0.0455
     38 C         144.1899  138.4820  161.7436 C.3     1  UNL1        0.0066
     39 C         143.0652  137.8161  161.0076 C.3     1  UNL1        0.0052
     40 C         141.7132  137.7032  161.6473 C.3     1  UNL1        0.0288
@<TRIPOS>BOND
     1    10    11    2
     2    11    12    1
     3    12    13    1
     4    13    14    2
     5    14    15    1
     6    15    16    2
     7    15    17    1
     8    17    18    1
     9    18    19    1
    10    19     8    1
    11     8     7    1
    12     7     6    1
    13     6     5    1
    14     5     4    1
    15     4     3    1
    16     3     2    1
    17     2     1    1
    18     1    21    1
    19    21    22    1
    20    22    23    1
    21    23    24    1
    22    24    26    1
    23    26    27   ar
    24    27    28   ar
    25    28    29   ar
    26    29    30   ar
    27    30    31   ar
    28    31    32   ar
    29    32    33    1
    30    32    34   ar
    31    34    35   ar
    32    35    36   ar
    33    28    37    1
    34    37    38    1
    35    38    39    1
    36    39    40    1
    37    19    20    1
    38    16    11    1
    39    36    26   ar
    40    20    14    1
    41    40    27    1
    42    36    30   ar
    43     8     9    1
    44    24    25    1
@<TRIPOS>MOLECULE
*****
 40 44 0 0 0
SMALL
GASTEIGER

@<TRIPOS>ATOM
      1 C         143.0971  140.7191  164.8319 C.3     1  UNL1        0.0001
      2 C         143.0080  139.4309  165.5952 C.3     1  UNL1        0.0000
      3 C         142.2612  138.2661  165.0161 C.3     1  UNL1        0.0000
      4 C         142.3729  137.9562  163.5526 C.3     1  UNL1        0.0000
      5 C         141.1649  138.0612  162.6695 C.3     1  UNL1        0.0014
      6 C         139.8591  137.4702  163.1116 C.3     1  UNL1        0.0171
      7 C         138.5768  138.2022  162.8470 C.3     1  UNL1        0.0685
      8 N         138.2964  139.5001  163.5448 N.3     1  UNL1       -0.2982
      9 H         138.8567  140.2128  163.0773 H       1  UNL1        0.1232
     10 O         140.5458  141.2510  171.3949 O.2     1  UNL1       -0.2726
     11 C         140.2785  141.1167  169.9250 C.2     1  UNL1        0.2497
     12 C         140.9244  142.0620  168.9558 C.3     1  UNL1        0.1129
     13 C         140.6572  141.9277  167.4860 C.2     1  UNL1       -0.0198
     14 C         139.7440  140.8482  166.9852 C.2     1  UNL1       -0.0134
     15 C         139.0981  139.9030  167.9544 C.2     1  UNL1        0.0468
     16 N         139.3654  140.0372  169.4243 N.am    1  UNL1       -0.1836
     17 C         138.1849  138.8234  167.4537 C.3     1  UNL1        0.0443
     18 C         137.9176  138.6891  165.9838 C.3     1  UNL1        0.0221
     19 C         138.5636  139.6344  165.0146 C.3     1  UNL1        0.0588
     20 C         139.4768  140.7139  165.5154 C.3     1  UNL1        0.0427
     21 C         144.4234  141.3978  164.6580 C.3     1  UNL1        0.0017
     22 C         145.0160  141.5465  163.2881 C.3     1  UNL1        0.0212
     23 C         144.2356  141.1139  162.0824 C.3     1  UNL1        0.0870
     24 N         143.3643  142.0985  161.3601 N.pl3   1  UNL1       -0.3328
     25 H         143.7717  142.8421  160.8599 H       1  UNL1        0.1468
     26 C         141.8722  141.9500  161.4001 C.ar    1  UNL1        0.0431
     27 C         141.1849  141.0223  160.4424 C.ar    1  UNL1        0.0045
     28 C         139.6928  140.8738  160.4824 C.ar    1  UNL1        0.0561
     29 N         138.8880  141.6530  161.4800 N.ar    1  UNL1       -0.2499
     30 C         139.5752  142.5806  162.4376 C.ar    1  UNL1        0.0829
     31 C         138.7704  143.3599  163.4352 C.ar    1  UNL1        0.0305
     32 C         139.4577  144.2875  164.3928 C.ar    1  UNL1        0.0592
     33 CL        138.6529  145.0667  165.3903 Cl      1  UNL1       -0.0822
     34 C         140.9498  144.4360  164.3528 C.ar    1  UNL1        0.0115
     35 C         141.7546  143.6569  163.3553 C.ar    1  UNL1        0.0036
     36 C         141.0673  142.7292  162.3976 C.ar    1  UNL1        0.0305
     37 C         139.0055  139.9461  159.5248 C.3     1  UNL1        0.0455
     38 C         139.8103  139.1669  158.5272 C.3     1  UNL1        0.0066
     39 C         141.3024  139.3154  158.4873 C.3     1  UNL1        0.0052
     40 C         141.9897  140.2431  159.4449 C.3     1  UNL1        0.0288
@<TRIPOS>BOND
     1    10    11    2
     2    11    12    1
     3    12    13    1
     4    13    14    2
     5    14    15    1
     6    15    16    2
     7    15    17    1
     8    17    18    1
     9    18    19    1
    10    19     8    1
    11     8     7    1
    12     7     6    1
    13     6     5    1
    14     5     4    1
    15     4     3    1
    16     3     2    1
    17     2     1    1
    18     1    21    1
    19    21    22    1
    20    22    23    1
    21    23    24    1
    22    24    26    1
    23    26    27   ar
    24    27    28   ar
    25    28    29   ar
    26    29    30   ar
    27    30    31   ar
    28    31    32   ar
    29    32    33    1
    30    32    34   ar
    31    34    35   ar
    32    35    36   ar
    33    28    37    1
    34    37    38    1
    35    38    39    1
    36    39    40    1
    37    19    20    1
    38    16    11    1
    39    36    26   ar
    40    20    14    1
    41    40    27    1
    42    36    30   ar
    43     8     9    1
    44    24    25    1
@<TRIPOS>MOLECULE
*****
 40 44 0 0 0
SMALL
GASTEIGER

@<TRIPOS>ATOM
      1 C         144.8517  140.6338  163.0134 C.3     1  UNL1        0.0001
      2 C         144.6611  139.6674  164.1447 C.3     1  UNL1        0.0000
      3 C         143.7072  139.9922  165.2559 C.3     1  UNL1        0.0000
      4 C         143.1241  138.8901  166.0899 C.3     1  UNL1        0.0000
      5 C         142.7970  139.1347  167.5332 C.3     1  UNL1        0.0014
      6 C         142.0286  140.3600  167.9309 C.3     1  UNL1        0.0171
      7 C         140.6175  140.5468  167.4578 C.3     1  UNL1        0.0685
      8 N         140.3184  141.5201  166.3563 N.3     1  UNL1       -0.2982
      9 H         139.5838  142.1381  166.7009 H       1  UNL1        0.1232
     10 O         139.0212  139.0465  158.4855 O.2     1  UNL1       -0.2726
     11 C         139.4697  139.5464  159.8268 C.2     1  UNL1        0.2497
     12 C         140.8633  140.0722  160.0036 C.3     1  UNL1        0.1129
     13 C         141.3118  140.5721  161.3449 C.2     1  UNL1       -0.0198
     14 C         140.3666  140.5462  162.5093 C.2     1  UNL1       -0.0134
     15 C         138.9730  140.0204  162.3325 C.2     1  UNL1        0.0468
     16 N         138.5246  139.5205  160.9912 N.am    1  UNL1       -0.1836
     17 C         138.0278  139.9944  163.4970 C.3     1  UNL1        0.0443
     18 C         138.4763  140.4943  164.8382 C.3     1  UNL1        0.0221
     19 C         139.8700  141.0202  165.0150 C.3     1  UNL1        0.0588
     20 C         140.8151  141.0461  163.8506 C.3     1  UNL1        0.0427
     21 C         144.7175  142.1080  163.2556 C.3     1  UNL1        0.0017
     22 C         143.7488  142.9162  162.4443 C.3     1  UNL1        0.0212
     23 C         143.4277  144.3256  162.8450 C.3     1  UNL1        0.0870
     24 N         142.4557  145.1324  162.0361 N.pl3   1  UNL1       -0.3328
     25 H         142.6835  146.0513  161.7661 H       1  UNL1        0.1468
     26 C         141.1366  144.5390  161.6386 C.ar    1  UNL1        0.0431
     27 C         140.0377  144.4078  162.6512 C.ar    1  UNL1        0.0045
     28 C         138.7186  143.8144  162.2538 C.ar    1  UNL1        0.0561
     29 N         138.4985  143.3523  160.8437 N.ar    1  UNL1       -0.2499
     30 C         139.5973  143.4836  159.8313 C.ar    1  UNL1        0.0829
     31 C         139.3772  143.0215  158.4212 C.ar    1  UNL1        0.0305
     32 C         140.4761  143.1528  157.4088 C.ar    1  UNL1        0.0592
     33 CL        140.2559  142.6907  155.9988 Cl      1  UNL1       -0.0822
     34 C         141.7952  143.7461  157.8062 C.ar    1  UNL1        0.0115
     35 C         142.0154  144.2082  159.2161 C.ar    1  UNL1        0.0036
     36 C         140.9164  144.0769  160.2287 C.ar    1  UNL1        0.0305
     37 C         137.6197  143.6832  163.2662 C.3     1  UNL1        0.0455
     38 C         137.8399  144.1452  164.6762 C.3     1  UNL1        0.0066
     39 C         139.1590  144.7386  165.0736 C.3     1  UNL1        0.0052
     40 C         140.2579  144.8699  164.0611 C.3     1  UNL1        0.0288
@<TRIPOS>BOND
     1    10    11    2
     2    11    12    1
     3    12    13    1
     4    13    14    2
     5    14    15    1
     6    15    16    2
     7    15    17    1
     8    17    18    1
     9    18    19    1
    10    19     8    1
    11     8     7    1
    12     7     6    1
    13     6     5    1
    14     5     4    1
    15     4     3    1
    16     3     2    1
    17     2     1    1
    18     1    21    1
    19    21    22    1
    20    22    23    1
    21    23    24    1
    22    24    26    1
    23    26    27   ar
    24    27    28   ar
    25    28    29   ar
    26    29    30   ar
    27    30    31   ar
    28    31    32   ar
    29    32    33    1
    30    32    34   ar
    31    34    35   ar
    32    35    36   ar
    33    28    37    1
    34    37    38    1
    35    38    39    1
    36    39    40    1
    37    19    20    1
    38    16    11    1
    39    36    26   ar
    40    20    14    1
    41    40    27    1
    42    36    30   ar
    43     8     9    1
    44    24    25    1
