@<TRIPOS>MOLECULE
*****
 19 20 0 0 0
SMALL
GASTEIGER

@<TRIPOS>ATOM
      1 C         139.1496  139.9874  166.3360 C.3     1  UNL1        0.0638
      2 C         139.0584  141.2578  165.5434 C.ar    1  UNL1       -0.0168
      3 C         139.9354  142.4237  165.8917 C.ar    1  UNL1       -0.0030
      4 C         139.8441  143.6939  165.0992 C.ar    1  UNL1        0.0111
      5 C         138.8759  143.7982  163.9583 C.ar    1  UNL1        0.0577
      6 CL        138.7847  145.0685  163.1658 Cl      1  UNL1       -0.0822
      7 C         137.9989  142.6323  163.6100 C.ar    1  UNL1        0.0111
      8 C         138.0901  141.3620  164.4025 C.ar    1  UNL1       -0.0030
      9 C         140.1882  139.8458  167.4089 C.ar    1  UNL1        0.0627
     10 C         141.6245  139.6240  167.0379 C.ar    1  UNL1        0.0151
     11 C         142.6631  139.4824  168.1108 C.ar    1  UNL1        0.0028
     12 C         142.2653  139.5626  169.5549 C.ar    1  UNL1        0.0207
     13 C         140.8289  139.7845  169.9260 C.ar    1  UNL1        0.0985
     14 N         139.7904  139.9261  168.8531 N.ar    1  UNL1       -0.2478
     15 C         138.2022  138.8588  166.0555 C.3     1  UNL1        0.0276
     16 C         138.7165  137.5744  165.4759 C.3     1  UNL1        0.0729
     17 C         138.8284  137.9552  162.9084 C.3     1  UNL1        0.0897
     18 N         139.5016  137.5896  164.1979 N.3     1  UNL1       -0.2703
     19 C         140.9601  137.2390  164.2095 C.3     1  UNL1        0.0897
@<TRIPOS>BOND
     1    17    18    1
     2    18    19    1
     3    18    16    1
     4    16    15    1
     5    15     1    1
     6     1     2    1
     7     2     3   ar
     8     3     4   ar
     9     4     5   ar
    10     5     6    1
    11     5     7   ar
    12     7     8   ar
    13     1     9    1
    14     9    10   ar
    15    10    11   ar
    16    11    12   ar
    17    12    13   ar
    18    13    14   ar
    19     8     2   ar
    20    14     9   ar
@<TRIPOS>MOLECULE
*****
 19 20 0 0 0
SMALL
GASTEIGER

@<TRIPOS>ATOM
      1 C         139.0391  140.0690  166.1358 C.3     1  UNL1        0.0638
      2 C         140.0381  139.9795  167.2512 C.ar    1  UNL1       -0.0168
      3 C         141.4808  139.7055  166.9456 C.ar    1  UNL1       -0.0030
      4 C         142.4798  139.6159  168.0610 C.ar    1  UNL1        0.0111
      5 C         142.0360  139.8004  169.4819 C.ar    1  UNL1        0.0577
      6 CL        143.0350  139.7108  170.5973 Cl      1  UNL1       -0.0822
      7 C         140.5932  140.0744  169.7875 C.ar    1  UNL1        0.0111
      8 C         139.5943  140.1639  168.6721 C.ar    1  UNL1       -0.0030
      9 C         138.8884  141.3468  165.3648 C.ar    1  UNL1        0.0627
     10 C         139.6966  142.5519  165.7448 C.ar    1  UNL1        0.0151
     11 C         139.5459  143.8297  164.9738 C.ar    1  UNL1        0.0028
     12 C         138.5869  143.9025  163.8228 C.ar    1  UNL1        0.0207
     13 C         137.7786  142.6974  163.4426 C.ar    1  UNL1        0.0985
     14 N         137.9293  141.4195  164.2137 N.ar    1  UNL1       -0.2478
     15 C         138.1909  138.8808  165.7915 C.3     1  UNL1        0.0276
     16 C         138.8335  137.6177  165.2996 C.3     1  UNL1        0.0729
     17 C         138.9751  137.9852  162.7317 C.3     1  UNL1        0.0897
     18 N         139.6339  137.6282  164.0311 N.3     1  UNL1       -0.2703
     19 C         141.0930  137.2817  164.0620 C.3     1  UNL1        0.0897
@<TRIPOS>BOND
     1    17    18    1
     2    18    19    1
     3    18    16    1
     4    16    15    1
     5    15     1    1
     6     1     2    1
     7     2     3   ar
     8     3     4   ar
     9     4     5   ar
    10     5     6    1
    11     5     7   ar
    12     7     8   ar
    13     1     9    1
    14     9    10   ar
    15    10    11   ar
    16    11    12   ar
    17    12    13   ar
    18    13    14   ar
    19     8     2   ar
    20    14     9   ar
@<TRIPOS>MOLECULE
*****
 19 20 0 0 0
SMALL
GASTEIGER

@<TRIPOS>ATOM
      1 C         140.3556  142.0643  166.3660 C.3     1  UNL1        0.0638
      2 C         140.2231  143.1000  165.2891 C.ar    1  UNL1       -0.0168
      3 C         141.4480  143.6358  164.6090 C.ar    1  UNL1       -0.0030
      4 C         141.3155  144.6715  163.5321 C.ar    1  UNL1        0.0111
      5 C         139.9580  145.1714  163.1354 C.ar    1  UNL1        0.0577
      6 CL        139.8255  146.2072  162.0584 Cl      1  UNL1       -0.0822
      7 C         138.7331  144.6357  163.8155 C.ar    1  UNL1        0.0111
      8 C         138.8657  143.6000  164.8923 C.ar    1  UNL1       -0.0030
      9 C         141.0775  142.3939  167.6389 C.ar    1  UNL1        0.0627
     10 C         140.3805  143.1697  168.7170 C.ar    1  UNL1        0.0151
     11 C         141.1023  143.4994  169.9899 C.ar    1  UNL1        0.0028
     12 C         142.5211  143.0533  170.1847 C.ar    1  UNL1        0.0207
     13 C         143.2182  142.2775  169.1066 C.ar    1  UNL1        0.0985
     14 N         142.4963  141.9478  167.8337 N.ar    1  UNL1       -0.2478
     15 C         139.7663  140.6989  166.1700 C.3     1  UNL1        0.0276
     16 C         140.1022  139.9063  164.9415 C.3     1  UNL1        0.0729
     17 C         138.8947  137.8756  163.8608 C.3     1  UNL1        0.0897
     18 N         139.0040  139.3553  164.0811 N.3     1  UNL1       -0.2703
     19 C         138.0152  140.2839  163.4409 C.3     1  UNL1        0.0897
@<TRIPOS>BOND
     1    17    18    1
     2    18    19    1
     3    18    16    1
     4    16    15    1
     5    15     1    1
     6     1     2    1
     7     2     3   ar
     8     3     4   ar
     9     4     5   ar
    10     5     6    1
    11     5     7   ar
    12     7     8   ar
    13     1     9    1
    14     9    10   ar
    15    10    11   ar
    16    11    12   ar
    17    12    13   ar
    18    13    14   ar
    19     8     2   ar
    20    14     9   ar
@<TRIPOS>MOLECULE
*****
 19 20 0 0 0
SMALL
GASTEIGER

@<TRIPOS>ATOM
      1 C         139.9542  142.6464  166.0318 C.3     1  UNL1        0.0638
      2 C         139.6620  141.3610  165.3157 C.ar    1  UNL1       -0.0168
      3 C         140.1174  141.1713  163.8993 C.ar    1  UNL1       -0.0030
      4 C         139.8252  139.8860  163.1833 C.ar    1  UNL1        0.0111
      5 C         139.0775  138.7905  163.8838 C.ar    1  UNL1        0.0577
      6 CL        138.7853  137.5052  163.1678 Cl      1  UNL1       -0.0822
      7 C         138.6220  138.9802  165.3003 C.ar    1  UNL1        0.0111
      8 C         138.9142  140.2655  166.0163 C.ar    1  UNL1       -0.0030
      9 C         140.8686  142.6513  167.2208 C.ar    1  UNL1        0.0627
     10 C         142.2822  142.1691  167.0818 C.ar    1  UNL1        0.0151
     11 C         143.1966  142.1741  168.2709 C.ar    1  UNL1        0.0028
     12 C         142.6975  142.6613  169.5988 C.ar    1  UNL1        0.0207
     13 C         141.2839  143.1435  169.7378 C.ar    1  UNL1        0.0985
     14 N         140.3695  143.1386  168.5488 N.ar    1  UNL1       -0.2478
     15 C         139.3319  143.9266  165.5588 C.3     1  UNL1        0.0276
     16 C         139.9552  144.6906  164.4283 C.3     1  UNL1        0.0729
     17 C         137.8614  144.2439  162.9565 C.3     1  UNL1        0.0897
     18 N         139.1808  144.9260  163.1654 N.3     1  UNL1       -0.2703
     19 C         139.7260  145.8435  162.1113 C.3     1  UNL1        0.0897
@<TRIPOS>BOND
     1    17    18    1
     2    18    19    1
     3    18    16    1
     4    16    15    1
     5    15     1    1
     6     1     2    1
     7     2     3   ar
     8     3     4   ar
     9     4     5   ar
    10     5     6    1
    11     5     7   ar
    12     7     8   ar
    13     1     9    1
    14     9    10   ar
    15    10    11   ar
    16    11    12   ar
    17    12    13   ar
    18    13    14   ar
    19     8     2   ar
    20    14     9   ar
@<TRIPOS>MOLECULE
*****
 19 20 0 0 0
SMALL
GASTEIGER

@<TRIPOS>ATOM
      1 C         138.9454  140.3751  165.6529 C.3     1  UNL1        0.0638
      2 C         139.6014  140.7887  166.9369 C.ar    1  UNL1       -0.0168
      3 C         140.4340  142.0354  166.9861 C.ar    1  UNL1       -0.0030
      4 C         141.0900  142.4489  168.2701 C.ar    1  UNL1        0.0111
      5 C         140.9133  141.6158  169.5049 C.ar    1  UNL1        0.0577
      6 CL        141.5693  142.0294  170.7889 Cl      1  UNL1       -0.0822
      7 C         140.0807  140.3691  169.4557 C.ar    1  UNL1        0.0111
      8 C         139.4247  139.9556  168.1717 C.ar    1  UNL1       -0.0030
      9 C         138.8746  141.3361  164.5033 C.ar    1  UNL1        0.0627
     10 C         137.7844  142.3651  164.4520 C.ar    1  UNL1        0.0151
     11 C         137.7136  143.3261  163.3025 C.ar    1  UNL1        0.0028
     12 C         138.7330  143.2582  162.2043 C.ar    1  UNL1        0.0207
     13 C         139.8233  142.2292  162.2555 C.ar    1  UNL1        0.0985
     14 N         139.8941  141.2681  163.4051 N.ar    1  UNL1       -0.2478
     15 C         138.3602  139.0006  165.5184 C.3     1  UNL1        0.0276
     16 C         139.2255  137.8566  165.0794 C.3     1  UNL1        0.0729
     17 C         140.9649  137.2736  163.2397 C.3     1  UNL1        0.0897
     18 N         139.5801  137.6975  163.6306 N.3     1  UNL1       -0.2703
     19 C         138.5501  137.9621  162.5729 C.3     1  UNL1        0.0897
@<TRIPOS>BOND
     1    17    18    1
     2    18    19    1
     3    18    16    1
     4    16    15    1
     5    15     1    1
     6     1     2    1
     7     2     3   ar
     8     3     4   ar
     9     4     5   ar
    10     5     6    1
    11     5     7   ar
    12     7     8   ar
    13     1     9    1
    14     9    10   ar
    15    10    11   ar
    16    11    12   ar
    17    12    13   ar
    18    13    14   ar
    19     8     2   ar
    20    14     9   ar
@<TRIPOS>MOLECULE
*****
 19 20 0 0 0
SMALL
GASTEIGER

@<TRIPOS>ATOM
      1 C         142.3186  139.2831  165.4530 C.3     1  UNL1        0.0638
      2 C         141.8216  139.5111  166.8498 C.ar    1  UNL1       -0.0168
      3 C         140.4194  139.9925  167.0776 C.ar    1  UNL1       -0.0030
      4 C         139.9224  140.2206  168.4744 C.ar    1  UNL1        0.0111
      5 C         140.8276  139.9673  169.6433 C.ar    1  UNL1        0.0577
      6 CL        140.3306  140.1954  171.0401 Cl      1  UNL1       -0.0822
      7 C         142.2299  139.4859  169.4155 C.ar    1  UNL1        0.0111
      8 C         142.7268  139.2578  168.0187 C.ar    1  UNL1       -0.0030
      9 C         143.2247  140.2882  164.8059 C.ar    1  UNL1        0.0627
     10 C         144.6398  139.9179  164.4737 C.ar    1  UNL1        0.0151
     11 C         145.5459  140.9231  163.8266 C.ar    1  UNL1        0.0028
     12 C         145.0369  142.2984  163.5117 C.ar    1  UNL1        0.0207
     13 C         143.6217  142.6687  163.8438 C.ar    1  UNL1        0.0985
     14 N         142.7156  141.6636  164.4909 N.ar    1  UNL1       -0.2478
     15 C         141.9096  138.0499  164.7034 C.3     1  UNL1        0.0276
     16 C         141.0068  138.1621  163.5107 C.3     1  UNL1        0.0729
     17 C         138.9715  137.5141  164.9897 C.3     1  UNL1        0.0897
     18 N         139.5415  137.8730  163.6495 N.3     1  UNL1       -0.2703
     19 C         138.6462  137.9427  162.4480 C.3     1  UNL1        0.0897
@<TRIPOS>BOND
     1    17    18    1
     2    18    19    1
     3    18    16    1
     4    16    15    1
     5    15     1    1
     6     1     2    1
     7     2     3   ar
     8     3     4   ar
     9     4     5   ar
    10     5     6    1
    11     5     7   ar
    12     7     8   ar
    13     1     9    1
    14     9    10   ar
    15    10    11   ar
    16    11    12   ar
    17    12    13   ar
    18    13    14   ar
    19     8     2   ar
    20    14     9   ar
@<TRIPOS>MOLECULE
*****
 19 20 0 0 0
SMALL
GASTEIGER

@<TRIPOS>ATOM
      1 C         140.0789  141.9977  166.0711 C.3     1  UNL1        0.0638
      2 C         139.9432  143.0653  165.0261 C.ar    1  UNL1       -0.0168
      3 C         141.1617  143.7791  164.5205 C.ar    1  UNL1       -0.0030
      4 C         141.0259  144.8467  163.4756 C.ar    1  UNL1        0.0111
      5 C         139.6716  145.2005  162.9364 C.ar    1  UNL1        0.0577
      6 CL        139.5359  146.2681  161.8914 Cl      1  UNL1       -0.0822
      7 C         138.4531  144.4867  163.4420 C.ar    1  UNL1        0.0111
      8 C         138.5889  143.4191  164.4869 C.ar    1  UNL1       -0.0030
      9 C         139.7885  140.5676  165.7242 C.ar    1  UNL1        0.0627
     10 C         138.6093  139.8718  166.3369 C.ar    1  UNL1        0.0151
     11 C         138.3189  138.4417  165.9901 C.ar    1  UNL1        0.0028
     12 C         139.2077  137.7073  165.0305 C.ar    1  UNL1        0.0207
     13 C         140.3869  138.4030  164.4178 C.ar    1  UNL1        0.0985
     14 N         140.6773  139.8332  164.7646 N.ar    1  UNL1       -0.2478
     15 C         140.5051  142.3603  167.4628 C.3     1  UNL1        0.0276
     16 C         141.9302  142.1613  167.8867 C.3     1  UNL1        0.0729
     17 C         143.7339  142.2201  169.7555 C.3     1  UNL1        0.0897
     18 N         142.3778  142.6095  169.2463 N.3     1  UNL1       -0.2703
     19 C         141.4694  143.4470  170.0967 C.3     1  UNL1        0.0897
@<TRIPOS>BOND
     1    17    18    1
     2    18    19    1
     3    18    16    1
     4    16    15    1
     5    15     1    1
     6     1     2    1
     7     2     3   ar
     8     3     4   ar
     9     4     5   ar
    10     5     6    1
    11     5     7   ar
    12     7     8   ar
    13     1     9    1
    14     9    10   ar
    15    10    11   ar
    16    11    12   ar
    17    12    13   ar
    18    13    14   ar
    19     8     2   ar
    20    14     9   ar
@<TRIPOS>MOLECULE
*****
 19 20 0 0 0
SMALL
GASTEIGER

@<TRIPOS>ATOM
      1 C         140.3856  141.8058  165.7126 C.3     1  UNL1        0.0638
      2 C         141.0600  142.1830  166.9984 C.ar    1  UNL1       -0.0168
      3 C         142.5271  141.9279  167.1787 C.ar    1  UNL1       -0.0030
      4 C         143.2013  142.3051  168.4644 C.ar    1  UNL1        0.0111
      5 C         142.4086  142.9374  169.5697 C.ar    1  UNL1        0.0577
      6 CL        143.0829  143.3146  170.8555 Cl      1  UNL1       -0.0822
      7 C         140.9415  143.1925  169.3894 C.ar    1  UNL1        0.0111
      8 C         140.2672  142.8153  168.1037 C.ar    1  UNL1       -0.0030
      9 C         139.8767  140.4088  165.5144 C.ar    1  UNL1        0.0627
     10 C         138.7875  139.8751  166.3969 C.ar    1  UNL1        0.0151
     11 C         138.2785  138.4781  166.1987 C.ar    1  UNL1        0.0028
     12 C         138.8587  137.6148  165.1180 C.ar    1  UNL1        0.0207
     13 C         139.9480  138.1484  164.2355 C.ar    1  UNL1        0.0985
     14 N         140.4570  139.5454  164.4337 N.ar    1  UNL1       -0.2478
     15 C         140.2202  142.8256  164.6252 C.3     1  UNL1        0.0276
     16 C         138.8495  143.1716  164.1235 C.3     1  UNL1        0.0729
     17 C         138.6646  143.0209  161.5365 C.3     1  UNL1        0.0897
     18 N         138.3080  142.4993  162.8969 N.3     1  UNL1       -0.2703
     19 C         137.4098  141.3054  163.0306 C.3     1  UNL1        0.0897
@<TRIPOS>BOND
     1    17    18    1
     2    18    19    1
     3    18    16    1
     4    16    15    1
     5    15     1    1
     6     1     2    1
     7     2     3   ar
     8     3     4   ar
     9     4     5   ar
    10     5     6    1
    11     5     7   ar
    12     7     8   ar
    13     1     9    1
    14     9    10   ar
    15    10    11   ar
    16    11    12   ar
    17    12    13   ar
    18    13    14   ar
    19     8     2   ar
    20    14     9   ar
@<TRIPOS>MOLECULE
*****
 19 20 0 0 0
SMALL
GASTEIGER

@<TRIPOS>ATOM
      1 C         140.9751  142.5352  165.1227 C.3     1  UNL1        0.0638
      2 C         140.0917  141.4345  165.6309 C.ar    1  UNL1       -0.0168
      3 C         140.2608  140.9231  167.0309 C.ar    1  UNL1       -0.0030
      4 C         139.3775  139.8224  167.5390 C.ar    1  UNL1        0.0111
      5 C         138.3252  139.2331  166.6472 C.ar    1  UNL1        0.0577
      6 CL        137.4419  138.1323  167.1554 Cl      1  UNL1       -0.0822
      7 C         138.1561  139.7444  165.2473 C.ar    1  UNL1        0.0111
      8 C         139.0394  140.8451  164.7391 C.ar    1  UNL1       -0.0030
      9 C         142.4013  142.2451  164.7597 C.ar    1  UNL1        0.0627
     10 C         142.7478  140.9793  164.0334 C.ar    1  UNL1        0.0151
     11 C         144.1740  140.6893  163.6704 C.ar    1  UNL1        0.0028
     12 C         145.2537  141.6650  164.0337 C.ar    1  UNL1        0.0207
     13 C         144.9072  142.9309  164.7601 C.ar    1  UNL1        0.0985
     14 N         143.4810  143.2210  165.1231 N.ar    1  UNL1       -0.2478
     15 C         140.4321  143.9259  164.9775 C.3     1  UNL1        0.0276
     16 C         140.6525  144.6880  163.7044 C.3     1  UNL1        0.0729
     17 C         138.1455  144.4474  163.0665 C.3     1  UNL1        0.0897
     18 N         139.4799  145.1025  162.8659 N.3     1  UNL1       -0.2703
     19 C         139.6417  146.1721  161.8268 C.3     1  UNL1        0.0897
@<TRIPOS>BOND
     1    17    18    1
     2    18    19    1
     3    18    16    1
     4    16    15    1
     5    15     1    1
     6     1     2    1
     7     2     3   ar
     8     3     4   ar
     9     4     5   ar
    10     5     6    1
    11     5     7   ar
    12     7     8   ar
    13     1     9    1
    14     9    10   ar
    15    10    11   ar
    16    11    12   ar
    17    12    13   ar
    18    13    14   ar
    19     8     2   ar
    20    14     9   ar
