@<TRIPOS>MOLECULE
*****
 37 43 0 0 0
SMALL
GASTEIGER

@<TRIPOS>ATOM
      1 N         140.9037  144.6493  158.9089 N.am    1  UNL1       -0.1429
      2 C         140.0199  144.8302  160.1074 C.2     1  UNL1        0.3326
      3 O         139.5900  146.2064  160.5214 O.2     1  UNL1       -0.2495
      4 C         139.5660  143.6349  160.8917 C.ar    1  UNL1        0.1980
      5 N         138.6987  143.5031  162.1084 N.ar    1  UNL1       -0.2218
      6 C         138.5925  142.0455  162.4463 C.ar    1  UNL1        0.1272
      7 N         139.3943  141.2764  161.4384 N.ar    1  UNL1       -0.2862
      8 C         139.9960  142.2588  160.4776 C.ar    1  UNL1        0.2030
      9 N         140.8797  142.0779  159.2793 N.pl3   1  UNL1       -0.1577
     10 C         141.4608  140.8536  158.6363 C.3     1  UNL1        0.2174
     11 C         142.2739  141.2923  157.4544 C.3     1  UNL1        0.2005
     12 C         143.0869  141.7310  156.2727 C.3     1  UNL1        0.0521
     13 C         143.6679  140.5067  155.6297 C.3     1  UNL1        0.0301
     14 C         143.2141  139.3113  156.4140 C.ar    1  UNL1       -0.0228
     15 C         143.4740  137.8435  156.2470 C.ar    1  UNL1       -0.0045
     16 C         142.8723  136.8613  157.2078 C.ar    1  UNL1       -0.0003
     17 C         142.0107  137.3468  158.3356 C.ar    1  UNL1       -0.0002
     18 C         141.7508  138.8146  158.5026 C.ar    1  UNL1       -0.0013
     19 C         142.3525  139.7969  157.5418 C.ar    1  UNL1        0.0126
     20 N         142.1952  142.7877  157.3671 N.2     1  UNL1       -0.1000
     21 C         141.3336  143.2732  158.4949 C.2     1  UNL1        0.3848
     22 C         140.6990  146.1793  156.8191 C.3     1  UNL1        0.0444
     23 C         141.3576  145.8447  158.1246 C.3     1  UNL1        0.1756
     24 C         137.8202  141.4598  163.5910 C.3     1  UNL1        0.0903
     25 C         138.5354  141.0363  164.8396 C.ar    1  UNL1       -0.0147
     26 C         139.5993  141.9143  165.4291 C.ar    1  UNL1       -0.0038
     27 C         140.3145  141.4909  166.6777 C.ar    1  UNL1       -0.0003
     28 C         139.9660  140.1895  167.3370 C.ar    1  UNL1       -0.0000
     29 C         138.9021  139.3114  166.7476 C.ar    1  UNL1       -0.0003
     30 C         138.1869  139.7348  165.4989 C.ar    1  UNL1       -0.0038
     31 C         139.5645  139.7867  161.3984 C.3     1  UNL1        0.1364
     32 C         140.3051  139.0865  162.4990 C.ar    1  UNL1        0.0005
     33 C         141.4862  139.7467  163.1464 C.ar    1  UNL1       -0.0024
     34 C         142.2268  139.0466  164.2470 C.ar    1  UNL1       -0.0003
     35 C         141.7862  137.6863  164.7003 C.ar    1  UNL1       -0.0000
     36 C         140.6051  137.0261  164.0530 C.ar    1  UNL1       -0.0003
     37 C         139.8645  137.7263  162.9523 C.ar    1  UNL1       -0.0024
@<TRIPOS>BOND
     1    22    23    1
     2    23     1    1
     3     1     2   am
     4     2     3    2
     5     2     4    1
     6     4     5   ar
     7     5     6   ar
     8     6    24    1
     9    24    25    1
    10    25    26   ar
    11    26    27   ar
    12    27    28   ar
    13    28    29   ar
    14    29    30   ar
    15     6     7   ar
    16     7    31    1
    17    31    32    1
    18    32    33   ar
    19    33    34   ar
    20    34    35   ar
    21    35    36   ar
    22    36    37   ar
    23     7     8   ar
    24     8     9    1
    25     9    10    1
    26    10    11    1
    27    11    12    1
    28    12    13    1
    29    13    14    1
    30    14    15   ar
    31    15    16   ar
    32    16    17   ar
    33    17    18   ar
    34    18    19   ar
    35    11    20    1
    36    20    21    2
    37    21     1    1
    38     8     4   ar
    39    21     9    1
    40    30    25   ar
    41    37    32   ar
    42    19    11    1
    43    19    14   ar
@<TRIPOS>MOLECULE
*****
 37 43 0 0 0
SMALL
GASTEIGER

@<TRIPOS>ATOM
      1 N         140.3131  144.8783  159.7814 N.am    1  UNL1       -0.1429
      2 C         139.9121  145.3905  161.1331 C.2     1  UNL1        0.3326
      3 O         139.4421  146.8063  161.2897 O.2     1  UNL1       -0.2495
      4 C         139.9812  144.4866  162.3283 C.ar    1  UNL1        0.1980
      5 N         139.6537  144.7091  163.7751 N.ar    1  UNL1       -0.2218
      6 C         139.9213  143.4307  164.5127 C.ar    1  UNL1        0.1272
      7 N         140.4142  142.4182  163.5219 N.ar    1  UNL1       -0.2862
      8 C         140.4512  143.0708  162.1717 C.ar    1  UNL1        0.2030
      9 N         140.8522  142.5587  160.8201 N.pl3   1  UNL1       -0.1577
     10 C         141.3518  141.2209  160.3613 C.3     1  UNL1        0.2174
     11 C         141.5915  141.2978  158.8825 C.3     1  UNL1        0.2005
     12 C         141.8312  141.3748  157.4038 C.3     1  UNL1        0.0521
     13 C         142.3308  140.0369  156.9450 C.3     1  UNL1        0.0301
     14 C         142.3998  139.1331  158.1402 C.ar    1  UNL1       -0.0228
     15 C         142.8197  137.7012  158.2928 C.ar    1  UNL1       -0.0045
     16 C         142.7827  137.0486  159.6428 C.ar    1  UNL1       -0.0003
     17 C         142.3258  137.8279  160.8403 C.ar    1  UNL1       -0.0002
     18 C         141.9059  139.2598  160.6877 C.ar    1  UNL1       -0.0013
     19 C         141.9429  139.9124  159.3377 C.ar    1  UNL1        0.0126
     20 N         141.2400  142.6833  158.4275 N.2     1  UNL1       -0.1000
     21 C         140.7831  143.4626  159.6250 C.2     1  UNL1        0.3848
     22 C         141.4407  145.9409  157.6959 C.3     1  UNL1        0.0444
     23 C         140.2441  145.7821  158.5863 C.3     1  UNL1        0.1756
     24 C         139.7297  143.2045  165.9831 C.3     1  UNL1        0.0903
     25 C         140.6626  142.2983  166.7305 C.ar    1  UNL1       -0.0147
     26 C         142.1059  142.6743  166.8900 C.ar    1  UNL1       -0.0038
     27 C         143.0389  141.7682  167.6373 C.ar    1  UNL1       -0.0003
     28 C         142.5286  140.4860  168.2252 C.ar    1  UNL1       -0.0000
     29 C         141.0852  140.1101  168.0657 C.ar    1  UNL1       -0.0003
     30 C         140.1522  141.0162  167.3184 C.ar    1  UNL1       -0.0038
     31 C         140.8020  141.0017  163.8274 C.3     1  UNL1        0.1364
     32 C         142.2466  140.6431  164.0132 C.ar    1  UNL1        0.0005
     33 C         143.3187  141.5726  163.5270 C.ar    1  UNL1       -0.0024
     34 C         144.7633  141.2140  163.7129 C.ar    1  UNL1       -0.0003
     35 C         145.1358  139.9257  164.3849 C.ar    1  UNL1       -0.0000
     36 C         144.0637  138.9962  164.8711 C.ar    1  UNL1       -0.0003
     37 C         142.6191  139.3548  164.6853 C.ar    1  UNL1       -0.0024
@<TRIPOS>BOND
     1    22    23    1
     2    23     1    1
     3     1     2   am
     4     2     3    2
     5     2     4    1
     6     4     5   ar
     7     5     6   ar
     8     6    24    1
     9    24    25    1
    10    25    26   ar
    11    26    27   ar
    12    27    28   ar
    13    28    29   ar
    14    29    30   ar
    15     6     7   ar
    16     7    31    1
    17    31    32    1
    18    32    33   ar
    19    33    34   ar
    20    34    35   ar
    21    35    36   ar
    22    36    37   ar
    23     7     8   ar
    24     8     9    1
    25     9    10    1
    26    10    11    1
    27    11    12    1
    28    12    13    1
    29    13    14    1
    30    14    15   ar
    31    15    16   ar
    32    16    17   ar
    33    17    18   ar
    34    18    19   ar
    35    11    20    1
    36    20    21    2
    37    21     1    1
    38     8     4   ar
    39    21     9    1
    40    30    25   ar
    41    37    32   ar
    42    19    11    1
    43    19    14   ar
@<TRIPOS>MOLECULE
*****
 37 43 0 0 0
SMALL
GASTEIGER

@<TRIPOS>ATOM
      1 N         139.2426  144.2141  163.7695 N.am    1  UNL1       -0.1429
      2 C         139.5385  144.7539  162.4016 C.2     1  UNL1        0.3326
      3 O         138.6942  145.8545  161.8308 O.2     1  UNL1       -0.2495
      4 C         140.6786  144.1930  161.6045 C.ar    1  UNL1        0.1980
      5 N         141.2063  144.5214  160.2393 N.ar    1  UNL1       -0.2218
      6 C         142.3767  143.6238  159.9663 C.ar    1  UNL1        0.1272
      7 N         142.5724  142.7406  161.1628 N.ar    1  UNL1       -0.2862
      8 C         141.5229  143.0923  162.1752 C.ar    1  UNL1        0.2030
      9 N         141.2271  142.5526  163.5431 N.pl3   1  UNL1       -0.1577
     10 C         141.8806  141.4785  164.3613 C.3     1  UNL1        0.2174
     11 C         141.1442  141.3756  165.6641 C.3     1  UNL1        0.2005
     12 C         140.4079  141.2727  166.9669 C.3     1  UNL1        0.0521
     13 C         141.0614  140.1987  167.7850 C.3     1  UNL1        0.0301
     14 C         142.2016  139.6378  166.9879 C.ar    1  UNL1       -0.0228
     15 C         143.1997  138.5587  167.2864 C.ar    1  UNL1       -0.0045
     16 C         144.2491  138.2069  166.2740 C.ar    1  UNL1       -0.0003
     17 C         144.3003  138.9343  164.9631 C.ar    1  UNL1       -0.0002
     18 C         143.3022  140.0134  164.6647 C.ar    1  UNL1       -0.0013
     19 C         142.2528  140.3652  165.6771 C.ar    1  UNL1        0.0126
     20 N         140.0357  142.3861  165.6510 N.2     1  UNL1       -0.1000
     21 C         140.0869  143.1135  164.3402 C.2     1  UNL1        0.3848
     22 C         138.3116  145.1716  165.9980 C.3     1  UNL1        0.0444
     23 C         138.1025  144.7750  164.5666 C.3     1  UNL1        0.1756
     24 C         143.2058  143.6116  158.7164 C.3     1  UNL1        0.0903
     25 C         143.2811  142.3698  157.8784 C.ar    1  UNL1       -0.0147
     26 C         144.5871  141.6489  157.7216 C.ar    1  UNL1       -0.0038
     27 C         144.6625  140.4071  156.8836 C.ar    1  UNL1       -0.0003
     28 C         143.4318  139.8861  156.2024 C.ar    1  UNL1       -0.0000
     29 C         142.1258  140.6071  156.3592 C.ar    1  UNL1       -0.0003
     30 C         142.0504  141.8489  157.1972 C.ar    1  UNL1       -0.0038
     31 C         143.6315  141.6900  161.3194 C.3     1  UNL1        0.1364
     32 C         143.3297  140.2627  160.9704 C.ar    1  UNL1        0.0005
     33 C         144.2925  139.1776  161.3516 C.ar    1  UNL1       -0.0024
     34 C         143.9906  137.7504  161.0026 C.ar    1  UNL1       -0.0003
     35 C         142.7259  137.4082  160.2724 C.ar    1  UNL1       -0.0000
     36 C         141.7630  138.4933  159.8911 C.ar    1  UNL1       -0.0003
     37 C         142.0649  139.9206  160.2401 C.ar    1  UNL1       -0.0024
@<TRIPOS>BOND
     1    22    23    1
     2    23     1    1
     3     1     2   am
     4     2     3    2
     5     2     4    1
     6     4     5   ar
     7     5     6   ar
     8     6    24    1
     9    24    25    1
    10    25    26   ar
    11    26    27   ar
    12    27    28   ar
    13    28    29   ar
    14    29    30   ar
    15     6     7   ar
    16     7    31    1
    17    31    32    1
    18    32    33   ar
    19    33    34   ar
    20    34    35   ar
    21    35    36   ar
    22    36    37   ar
    23     7     8   ar
    24     8     9    1
    25     9    10    1
    26    10    11    1
    27    11    12    1
    28    12    13    1
    29    13    14    1
    30    14    15   ar
    31    15    16   ar
    32    16    17   ar
    33    17    18   ar
    34    18    19   ar
    35    11    20    1
    36    20    21    2
    37    21     1    1
    38     8     4   ar
    39    21     9    1
    40    30    25   ar
    41    37    32   ar
    42    19    11    1
    43    19    14   ar
@<TRIPOS>MOLECULE
*****
 37 43 0 0 0
SMALL
GASTEIGER

@<TRIPOS>ATOM
      1 N         141.7971  138.3418  157.8910 N.am    1  UNL1       -0.1429
      2 C         142.6956  137.9827  159.0373 C.2     1  UNL1        0.3326
      3 O         143.0837  136.5520  159.2664 O.2     1  UNL1       -0.2495
      4 C         143.2059  139.0543  159.9545 C.ar    1  UNL1        0.1980
      5 N         144.0993  139.0035  161.1583 N.ar    1  UNL1       -0.2218
      6 C         144.2634  140.4028  161.6732 C.ar    1  UNL1        0.1272
      7 N         143.4714  141.3184  160.7876 N.ar    1  UNL1       -0.2862
      8 C         142.8178  140.4850  159.7254 C.ar    1  UNL1        0.2030
      9 N         141.9193  140.8441  158.5792 N.pl3   1  UNL1       -0.1577
     10 C         141.3706  142.1580  158.1074 C.3     1  UNL1        0.2174
     11 C         140.5211  141.8985  156.8986 C.3     1  UNL1        0.2005
     12 C         139.6717  141.6388  155.6899 C.3     1  UNL1        0.0521
     13 C         139.1230  142.9527  155.2182 C.3     1  UNL1        0.0301
     14 C         139.6333  144.0244  156.1353 C.ar    1  UNL1       -0.0228
     15 C         139.4227  145.5093  156.1589 C.ar    1  UNL1       -0.0045
     16 C         140.0763  146.3427  157.2211 C.ar    1  UNL1       -0.0003
     17 C         140.9405  145.6911  158.2597 C.ar    1  UNL1       -0.0002
     18 C         141.1510  144.2061  158.2361 C.ar    1  UNL1       -0.0013
     19 C         140.4974  143.3728  157.1739 C.ar    1  UNL1        0.0126
     20 N         140.5449  140.4241  156.6234 N.2     1  UNL1       -0.1000
     21 C         141.4090  139.7725  157.6620 C.2     1  UNL1        0.3848
     22 C         142.1305  136.8012  155.8258 C.3     1  UNL1        0.0444
     23 C         141.2868  137.2702  156.9739 C.3     1  UNL1        0.1756
     24 C         145.0767  140.8142  162.8645 C.3     1  UNL1        0.0903
     25 C         144.3944  141.3302  164.0965 C.ar    1  UNL1       -0.0147
     26 C         144.7987  142.6515  164.6802 C.ar    1  UNL1       -0.0038
     27 C         144.1164  143.1676  165.9123 C.ar    1  UNL1       -0.0003
     28 C         143.0297  142.3624  166.5608 C.ar    1  UNL1       -0.0000
     29 C         142.6253  141.0410  165.9772 C.ar    1  UNL1       -0.0003
     30 C         143.3077  140.5249  164.7451 C.ar    1  UNL1       -0.0038
     31 C         143.3536  142.8062  160.9379 C.3     1  UNL1        0.1364
     32 C         142.5012  143.3848  162.0282 C.ar    1  UNL1        0.0005
     33 C         141.3124  142.6232  162.5348 C.ar    1  UNL1       -0.0024
     34 C         140.4601  143.2017  163.6251 C.ar    1  UNL1       -0.0003
     35 C         140.7964  144.5419  164.2087 C.ar    1  UNL1       -0.0000
     36 C         141.9852  145.3036  163.7021 C.ar    1  UNL1       -0.0003
     37 C         142.8376  144.7250  162.6118 C.ar    1  UNL1       -0.0024
@<TRIPOS>BOND
     1    22    23    1
     2    23     1    1
     3     1     2   am
     4     2     3    2
     5     2     4    1
     6     4     5   ar
     7     5     6   ar
     8     6    24    1
     9    24    25    1
    10    25    26   ar
    11    26    27   ar
    12    27    28   ar
    13    28    29   ar
    14    29    30   ar
    15     6     7   ar
    16     7    31    1
    17    31    32    1
    18    32    33   ar
    19    33    34   ar
    20    34    35   ar
    21    35    36   ar
    22    36    37   ar
    23     7     8   ar
    24     8     9    1
    25     9    10    1
    26    10    11    1
    27    11    12    1
    28    12    13    1
    29    13    14    1
    30    14    15   ar
    31    15    16   ar
    32    16    17   ar
    33    17    18   ar
    34    18    19   ar
    35    11    20    1
    36    20    21    2
    37    21     1    1
    38     8     4   ar
    39    21     9    1
    40    30    25   ar
    41    37    32   ar
    42    19    11    1
    43    19    14   ar
@<TRIPOS>MOLECULE
*****
 37 43 0 0 0
SMALL
GASTEIGER

@<TRIPOS>ATOM
      1 N         141.4250  135.7836  155.3628 N.am    1  UNL1       -0.1429
      2 C         142.3896  135.8995  156.5058 C.2     1  UNL1        0.3326
      3 O         143.5108  134.9128  156.6441 O.2     1  UNL1       -0.2495
      4 C         142.2328  137.0023  157.5104 C.ar    1  UNL1        0.1980
      5 N         143.0228  137.3666  158.7323 N.ar    1  UNL1       -0.2218
      6 C         142.3899  138.5786  159.3492 C.ar    1  UNL1        0.1272
      7 N         141.2087  138.9633  158.5086 N.ar    1  UNL1       -0.2862
      8 C         141.1116  137.9891  157.3721 C.ar    1  UNL1        0.2030
      9 N         140.1471  137.8732  156.2292 N.pl3   1  UNL1       -0.1577
     10 C         138.9534  138.6921  155.8362 C.3     1  UNL1        0.2174
     11 C         138.3724  138.0954  154.5885 C.3     1  UNL1        0.2005
     12 C         137.7914  137.4987  153.3410 C.3     1  UNL1        0.0521
     13 C         136.5977  138.3177  152.9480 C.3     1  UNL1        0.0301
     14 C         136.4410  139.4205  153.9526 C.ar    1  UNL1       -0.0228
     15 C         135.4412  140.5320  154.0751 C.ar    1  UNL1       -0.0045
     16 C         135.5383  141.5061  155.2115 C.ar    1  UNL1       -0.0003
     17 C         136.6351  141.3687  156.2255 C.ar    1  UNL1       -0.0002
     18 C         137.6349  140.2572  156.1030 C.ar    1  UNL1       -0.0013
     19 C         137.5378  139.2831  154.9665 C.ar    1  UNL1        0.0126
     20 N         139.2070  136.9077  154.2106 N.2     1  UNL1       -0.1000
     21 C         140.3038  136.7704  155.2246 C.2     1  UNL1        0.3848
     22 C         141.8500  135.0094  152.9194 C.3     1  UNL1        0.0444
     23 C         141.5817  134.6808  154.3582 C.3     1  UNL1        0.1756
     24 C         142.8562  139.2823  160.5891 C.3     1  UNL1        0.0903
     25 C         142.1692  139.0296  161.8983 C.ar    1  UNL1       -0.0147
     26 C         141.7869  137.6322  162.2873 C.ar    1  UNL1       -0.0038
     27 C         141.0998  137.3795  163.5965 C.ar    1  UNL1       -0.0003
     28 C         140.7950  138.5241  164.5168 C.ar    1  UNL1       -0.0000
     29 C         141.1773  139.9214  164.1278 C.ar    1  UNL1       -0.0003
     30 C         141.8643  140.1742  162.8186 C.ar    1  UNL1       -0.0038
     31 C         140.2864  140.1192  158.7602 C.3     1  UNL1        0.1364
     32 C         139.4326  140.1429  159.9933 C.ar    1  UNL1        0.0005
     33 C         139.1617  141.4416  160.6932 C.ar    1  UNL1       -0.0024
     34 C         138.3079  141.4653  161.9262 C.ar    1  UNL1       -0.0003
     35 C         137.7250  140.1902  162.4594 C.ar    1  UNL1       -0.0000
     36 C         137.9959  138.8915  161.7596 C.ar    1  UNL1       -0.0003
     37 C         138.8497  138.8678  160.5265 C.ar    1  UNL1       -0.0024
@<TRIPOS>BOND
     1    22    23    1
     2    23     1    1
     3     1     2   am
     4     2     3    2
     5     2     4    1
     6     4     5   ar
     7     5     6   ar
     8     6    24    1
     9    24    25    1
    10    25    26   ar
    11    26    27   ar
    12    27    28   ar
    13    28    29   ar
    14    29    30   ar
    15     6     7   ar
    16     7    31    1
    17    31    32    1
    18    32    33   ar
    19    33    34   ar
    20    34    35   ar
    21    35    36   ar
    22    36    37   ar
    23     7     8   ar
    24     8     9    1
    25     9    10    1
    26    10    11    1
    27    11    12    1
    28    12    13    1
    29    13    14    1
    30    14    15   ar
    31    15    16   ar
    32    16    17   ar
    33    17    18   ar
    34    18    19   ar
    35    11    20    1
    36    20    21    2
    37    21     1    1
    38     8     4   ar
    39    21     9    1
    40    30    25   ar
    41    37    32   ar
    42    19    11    1
    43    19    14   ar
@<TRIPOS>MOLECULE
*****
 37 43 0 0 0
SMALL
GASTEIGER

@<TRIPOS>ATOM
      1 N         142.6493  138.1159  158.2183 N.am    1  UNL1       -0.1429
      2 C         142.8547  137.5379  159.5872 C.2     1  UNL1        0.3326
      3 O         143.2997  136.1138  159.7410 O.2     1  UNL1       -0.2495
      4 C         142.6152  138.3842  160.8023 C.ar    1  UNL1        0.1980
      5 N         142.7339  138.0915  162.2686 N.ar    1  UNL1       -0.2218
      6 C         142.3623  139.3348  163.0211 C.ar    1  UNL1        0.1272
      7 N         142.0139  140.3959  162.0198 N.ar    1  UNL1       -0.2862
      8 C         142.1701  139.8084  160.6484 C.ar    1  UNL1        0.2030
      9 N         141.9647  140.3864  159.2796 N.pl3   1  UNL1       -0.1577
     10 C         141.5335  141.7472  158.8190 C.3     1  UNL1        0.2174
     11 C         141.5065  141.7420  157.3192 C.3     1  UNL1        0.2005
     12 C         141.4796  141.7367  155.8195 C.3     1  UNL1        0.0521
     13 C         141.0484  143.0976  155.3589 C.3     1  UNL1        0.0301
     14 C         140.8089  143.9439  156.5740 C.ar    1  UNL1       -0.0228
     15 C         140.3695  145.3691  156.7337 C.ar    1  UNL1       -0.0045
     16 C         140.2132  145.9566  158.1049 C.ar    1  UNL1       -0.0003
     17 C         140.4964  145.1188  159.3165 C.ar    1  UNL1       -0.0002
     18 C         140.9357  143.6935  159.1568 C.ar    1  UNL1       -0.0013
     19 C         141.0920  143.1061  157.7855 C.ar    1  UNL1        0.0126
     20 N         141.9211  140.3778  156.8530 N.2     1  UNL1       -0.1000
     21 C         142.2043  139.5400  158.0646 C.2     1  UNL1        0.3848
     22 C         141.7394  136.5767  156.3334 C.3     1  UNL1        0.0444
     23 C         142.8888  137.2696  157.0032 C.3     1  UNL1        0.1756
     24 C         142.3426  139.4898  164.5129 C.3     1  UNL1        0.0903
     25 C         141.0442  139.4029  165.2589 C.ar    1  UNL1       -0.0147
     26 C         140.8504  140.1898  166.5212 C.ar    1  UNL1       -0.0038
     27 C         139.5520  140.1030  167.2673 C.ar    1  UNL1       -0.0003
     28 C         138.4474  139.2293  166.7512 C.ar    1  UNL1       -0.0000
     29 C         138.6412  138.4424  165.4889 C.ar    1  UNL1       -0.0003
     30 C         139.9396  138.5292  164.7428 C.ar    1  UNL1       -0.0038
     31 C         141.5846  141.7983  162.3345 C.3     1  UNL1        0.1364
     32 C         140.2993  142.0423  163.0685 C.ar    1  UNL1        0.0005
     33 C         139.0421  141.3523  162.6292 C.ar    1  UNL1       -0.0024
     34 C         137.7568  141.5963  163.3631 C.ar    1  UNL1       -0.0003
     35 C         137.7289  142.5304  164.5364 C.ar    1  UNL1       -0.0000
     36 C         138.9862  143.2205  164.9757 C.ar    1  UNL1       -0.0003
     37 C         140.2714  142.9765  164.2418 C.ar    1  UNL1       -0.0024
@<TRIPOS>BOND
     1    22    23    1
     2    23     1    1
     3     1     2   am
     4     2     3    2
     5     2     4    1
     6     4     5   ar
     7     5     6   ar
     8     6    24    1
     9    24    25    1
    10    25    26   ar
    11    26    27   ar
    12    27    28   ar
    13    28    29   ar
    14    29    30   ar
    15     6     7   ar
    16     7    31    1
    17    31    32    1
    18    32    33   ar
    19    33    34   ar
    20    34    35   ar
    21    35    36   ar
    22    36    37   ar
    23     7     8   ar
    24     8     9    1
    25     9    10    1
    26    10    11    1
    27    11    12    1
    28    12    13    1
    29    13    14    1
    30    14    15   ar
    31    15    16   ar
    32    16    17   ar
    33    17    18   ar
    34    18    19   ar
    35    11    20    1
    36    20    21    2
    37    21     1    1
    38     8     4   ar
    39    21     9    1
    40    30    25   ar
    41    37    32   ar
    42    19    11    1
    43    19    14   ar
@<TRIPOS>MOLECULE
*****
 37 43 0 0 0
SMALL
GASTEIGER

@<TRIPOS>ATOM
      1 N         142.5793  143.3485  158.2348 N.am    1  UNL1       -0.1429
      2 C         142.5354  142.1962  157.2754 C.2     1  UNL1        0.3326
      3 O         142.4464  142.4515  155.8000 O.2     1  UNL1       -0.2495
      4 C         142.5805  140.7885  157.7916 C.ar    1  UNL1        0.1980
      5 N         142.5536  139.4618  157.0924 N.ar    1  UNL1       -0.2218
      6 C         142.6260  138.3864  158.1357 C.ar    1  UNL1        0.1272
      7 N         142.6976  139.0486  159.4797 N.ar    1  UNL1       -0.2862
      8 C         142.6695  140.5332  159.2671 C.ar    1  UNL1        0.2030
      9 N         142.7134  141.6855  160.2263 N.pl3   1  UNL1       -0.1577
     10 C         142.8004  141.7430  161.7227 C.3     1  UNL1        0.2174
     11 C         142.8090  143.1863  162.1314 C.3     1  UNL1        0.2005
     12 C         142.8177  144.6296  162.5400 C.3     1  UNL1        0.0521
     13 C         142.9046  144.6871  164.0363 C.3     1  UNL1        0.0301
     14 C         142.9497  143.2794  164.5525 C.ar    1  UNL1       -0.0228
     15 C         143.0369  142.7224  165.9425 C.ar    1  UNL1       -0.0045
     16 C         143.0651  141.2379  166.1551 C.ar    1  UNL1       -0.0003
     17 C         143.0060  140.3103  164.9778 C.ar    1  UNL1       -0.0002
     18 C         142.9188  140.8673  163.5878 C.ar    1  UNL1       -0.0013
     19 C         142.8906  142.3519  163.3752 C.ar    1  UNL1        0.0126
     20 N         142.7274  144.0207  160.8875 N.2     1  UNL1       -0.1000
     21 C         142.6683  143.0932  159.7101 C.2     1  UNL1        0.3848
     22 C         141.3112  145.5966  157.9376 C.3     1  UNL1        0.0444
     23 C         142.5342  144.7562  157.7186 C.3     1  UNL1        0.1756
     24 C         142.6267  136.9084  157.8799 C.3     1  UNL1        0.0903
     25 C         142.2510  136.3812  156.5269 C.ar    1  UNL1       -0.0147
     26 C         140.8624  136.5904  155.9995 C.ar    1  UNL1       -0.0038
     27 C         140.4866  136.0632  154.6464 C.ar    1  UNL1       -0.0003
     28 C         141.4994  135.3268  153.8206 C.ar    1  UNL1       -0.0000
     29 C         142.8880  135.1177  154.3480 C.ar    1  UNL1       -0.0003
     30 C         143.2638  135.6448  155.7011 C.ar    1  UNL1       -0.0038
     31 C         142.7825  138.3490  160.8039 C.3     1  UNL1        0.1364
     32 C         141.5393  138.1167  161.6104 C.ar    1  UNL1        0.0005
     33 C         141.6419  137.5965  163.0136 C.ar    1  UNL1       -0.0024
     34 C         140.3987  137.3642  163.8201 C.ar    1  UNL1       -0.0003
     35 C         139.0529  137.6519  163.2235 C.ar    1  UNL1       -0.0000
     36 C         138.9503  138.1720  161.8203 C.ar    1  UNL1       -0.0003
     37 C         140.1935  138.4044  161.0138 C.ar    1  UNL1       -0.0024
@<TRIPOS>BOND
     1    22    23    1
     2    23     1    1
     3     1     2   am
     4     2     3    2
     5     2     4    1
     6     4     5   ar
     7     5     6   ar
     8     6    24    1
     9    24    25    1
    10    25    26   ar
    11    26    27   ar
    12    27    28   ar
    13    28    29   ar
    14    29    30   ar
    15     6     7   ar
    16     7    31    1
    17    31    32    1
    18    32    33   ar
    19    33    34   ar
    20    34    35   ar
    21    35    36   ar
    22    36    37   ar
    23     7     8   ar
    24     8     9    1
    25     9    10    1
    26    10    11    1
    27    11    12    1
    28    12    13    1
    29    13    14    1
    30    14    15   ar
    31    15    16   ar
    32    16    17   ar
    33    17    18   ar
    34    18    19   ar
    35    11    20    1
    36    20    21    2
    37    21     1    1
    38     8     4   ar
    39    21     9    1
    40    30    25   ar
    41    37    32   ar
    42    19    11    1
    43    19    14   ar
@<TRIPOS>MOLECULE
*****
 37 43 0 0 0
SMALL
GASTEIGER

@<TRIPOS>ATOM
      1 N         141.6212  144.1149  156.8926 N.am    1  UNL1       -0.1429
      2 C         140.6288  144.4770  157.9576 C.2     1  UNL1        0.3326
      3 O         140.2081  145.9057  158.1363 O.2     1  UNL1       -0.2495
      4 C         140.0570  143.4104  158.8438 C.ar    1  UNL1        0.1980
      5 N         139.0682  143.4649  159.9703 N.ar    1  UNL1       -0.2218
      6 C         138.8777  142.0700  160.4879 C.ar    1  UNL1        0.1272
      7 N         139.7488  141.1533  159.6812 N.ar    1  UNL1       -0.2862
      8 C         140.4777  141.9817  158.6650 C.ar    1  UNL1        0.2030
      9 N         141.4701  141.6196  157.6002 N.pl3   1  UNL1       -0.1577
     10 C         142.0693  140.3067  157.1912 C.3     1  UNL1        0.2174
     11 C         143.0114  140.5620  156.0521 C.3     1  UNL1        0.2005
     12 C         143.9535  140.8173  154.9131 C.3     1  UNL1        0.0521
     13 C         144.5527  139.5044  154.5041 C.3     1  UNL1        0.0301
     14 C         143.9810  138.4377  155.3903 C.ar    1  UNL1       -0.0228
     15 C         144.2047  136.9557  155.4497 C.ar    1  UNL1       -0.0045
     16 C         143.4758  136.1273  156.4658 C.ar    1  UNL1       -0.0003
     17 C         142.5232  136.7810  157.4225 C.ar    1  UNL1       -0.0002
     18 C         142.2995  138.2630  157.3632 C.ar    1  UNL1       -0.0013
     19 C         143.0284  139.0914  156.3470 C.ar    1  UNL1        0.0126
     20 N         142.9944  142.0326  155.7572 N.2     1  UNL1       -0.1000
     21 C         142.0418  142.6863  156.7140 C.2     1  UNL1        0.3848
     22 C         141.4631  145.5942  154.7627 C.3     1  UNL1        0.0444
     23 C         142.1930  145.1816  156.0064 C.3     1  UNL1        0.1756
     24 C         137.9746  141.6631  161.6143 C.3     1  UNL1        0.0903
     25 C         138.5558  141.3086  162.9509 C.ar    1  UNL1       -0.0147
     26 C         139.8061  141.9858  163.4287 C.ar    1  UNL1       -0.0038
     27 C         140.3873  141.6312  164.7652 C.ar    1  UNL1       -0.0003
     28 C         139.7182  140.5995  165.6242 C.ar    1  UNL1       -0.0000
     29 C         138.4679  139.9223  165.1464 C.ar    1  UNL1       -0.0003
     30 C         137.8867  140.2768  163.8099 C.ar    1  UNL1       -0.0038
     31 C         139.8698  139.6688  159.8593 C.3     1  UNL1        0.1364
     32 C         140.5277  139.1119  161.0869 C.ar    1  UNL1        0.0005
     33 C         139.8803  137.9881  161.8405 C.ar    1  UNL1       -0.0024
     34 C         140.5382  137.4312  163.0681 C.ar    1  UNL1       -0.0003
     35 C         141.8435  137.9980  163.5422 C.ar    1  UNL1       -0.0000
     36 C         142.4909  139.1218  162.7886 C.ar    1  UNL1       -0.0003
     37 C         141.8330  139.6787  161.5610 C.ar    1  UNL1       -0.0024
@<TRIPOS>BOND
     1    22    23    1
     2    23     1    1
     3     1     2   am
     4     2     3    2
     5     2     4    1
     6     4     5   ar
     7     5     6   ar
     8     6    24    1
     9    24    25    1
    10    25    26   ar
    11    26    27   ar
    12    27    28   ar
    13    28    29   ar
    14    29    30   ar
    15     6     7   ar
    16     7    31    1
    17    31    32    1
    18    32    33   ar
    19    33    34   ar
    20    34    35   ar
    21    35    36   ar
    22    36    37   ar
    23     7     8   ar
    24     8     9    1
    25     9    10    1
    26    10    11    1
    27    11    12    1
    28    12    13    1
    29    13    14    1
    30    14    15   ar
    31    15    16   ar
    32    16    17   ar
    33    17    18   ar
    34    18    19   ar
    35    11    20    1
    36    20    21    2
    37    21     1    1
    38     8     4   ar
    39    21     9    1
    40    30    25   ar
    41    37    32   ar
    42    19    11    1
    43    19    14   ar
@<TRIPOS>MOLECULE
*****
 37 43 0 0 0
SMALL
GASTEIGER

@<TRIPOS>ATOM
      1 N         140.3658  144.6262  159.1894 N.am    1  UNL1       -0.1429
      2 C         140.5360  145.1204  160.5954 C.2     1  UNL1        0.3326
      3 O         140.1285  146.5189  160.9534 O.2     1  UNL1       -0.2495
      4 C         141.1138  144.2161  161.6434 C.ar    1  UNL1        0.1980
      5 N         141.3987  144.4230  163.1015 N.ar    1  UNL1       -0.2218
      6 C         141.9822  143.1523  163.6447 C.ar    1  UNL1        0.1272
      7 N         142.0581  142.1601  162.5223 N.ar    1  UNL1       -0.2862
      8 C         141.5214  142.8176  161.2854 C.ar    1  UNL1        0.2030
      9 N         141.3511  142.3234  159.8794 N.pl3   1  UNL1       -0.1577
     10 C         141.6600  141.0047  159.2347 C.3     1  UNL1        0.2174
     11 C         141.2730  141.0941  157.7882 C.3     1  UNL1        0.2005
     12 C         140.8861  141.1835  156.3417 C.3     1  UNL1        0.0521
     13 C         141.1949  139.8648  155.6970 C.3     1  UNL1        0.0301
     14 C         141.7727  138.9604  156.7450 C.ar    1  UNL1       -0.0228
     15 C         142.2611  137.5433  156.6893 C.ar    1  UNL1       -0.0045
     16 C         142.7978  136.8859  157.9262 C.ar    1  UNL1       -0.0003
     17 C         142.8461  137.6457  159.2186 C.ar    1  UNL1       -0.0002
     18 C         142.3577  139.0628  159.2742 C.ar    1  UNL1       -0.0013
     19 C         141.8210  139.7202  158.0374 C.ar    1  UNL1        0.0126
     20 N         140.7251  142.4680  157.5390 N.2     1  UNL1       -0.1000
     21 C         140.7733  143.2278  158.8315 C.2     1  UNL1        0.3848
     22 C         140.6830  146.1511  157.1099 C.3     1  UNL1        0.0444
     23 C         139.7880  145.5306  158.1414 C.3     1  UNL1        0.1756
     24 C         142.4141  142.9155  165.0615 C.3     1  UNL1        0.0903
     25 C         141.7173  141.8814  165.8951 C.ar    1  UNL1       -0.0147
     26 C         142.5190  140.9093  166.7089 C.ar    1  UNL1       -0.0038
     27 C         141.8222  139.8751  167.5426 C.ar    1  UNL1       -0.0003
     28 C         140.3237  139.8130  167.5625 C.ar    1  UNL1       -0.0000
     29 C         139.5219  140.7851  166.7486 C.ar    1  UNL1       -0.0003
     30 C         140.2187  141.8193  165.9150 C.ar    1  UNL1       -0.0038
     31 C         142.5791  140.7569  162.6196 C.3     1  UNL1        0.1364
     32 C         141.7299  139.6823  163.2312 C.ar    1  UNL1        0.0005
     33 C         140.2412  139.7083  163.0492 C.ar    1  UNL1       -0.0024
     34 C         139.3920  138.6336  163.6608 C.ar    1  UNL1       -0.0003
     35 C         140.0315  137.5330  164.4543 C.ar    1  UNL1       -0.0000
     36 C         141.5202  137.5070  164.6363 C.ar    1  UNL1       -0.0003
     37 C         142.3694  138.5816  164.0247 C.ar    1  UNL1       -0.0024
@<TRIPOS>BOND
     1    22    23    1
     2    23     1    1
     3     1     2   am
     4     2     3    2
     5     2     4    1
     6     4     5   ar
     7     5     6   ar
     8     6    24    1
     9    24    25    1
    10    25    26   ar
    11    26    27   ar
    12    27    28   ar
    13    28    29   ar
    14    29    30   ar
    15     6     7   ar
    16     7    31    1
    17    31    32    1
    18    32    33   ar
    19    33    34   ar
    20    34    35   ar
    21    35    36   ar
    22    36    37   ar
    23     7     8   ar
    24     8     9    1
    25     9    10    1
    26    10    11    1
    27    11    12    1
    28    12    13    1
    29    13    14    1
    30    14    15   ar
    31    15    16   ar
    32    16    17   ar
    33    17    18   ar
    34    18    19   ar
    35    11    20    1
    36    20    21    2
    37    21     1    1
    38     8     4   ar
    39    21     9    1
    40    30    25   ar
    41    37    32   ar
    42    19    11    1
    43    19    14   ar
