@<TRIPOS>MOLECULE
*****
 28 30 0 0 0
SMALL
GASTEIGER

@<TRIPOS>ATOM
      1 C         139.6707  138.4933  163.5571 C.ar    1  UNL1        0.0587
      2 C         139.2071  137.6586  164.7140 C.ar    1  UNL1        0.0147
      3 C         138.4524  138.2952  165.8433 C.ar    1  UNL1        0.0024
      4 C         138.1614  139.7664  165.8158 C.ar    1  UNL1        0.0147
      5 C         138.6250  140.6011  164.6589 C.ar    1  UNL1        0.0587
      6 N         139.3797  139.9646  163.5296 N.ar    1  UNL1       -0.2540
      7 C         140.4254  137.8568  162.4278 C.3     1  UNL1        0.0496
      8 C         141.8968  137.5974  162.5611 C.3     1  UNL1        0.0536
      9 C         142.8468  138.7436  162.7453 C.3     1  UNL1        0.2058
     10 O         143.4432  139.0139  164.0947 O.3     1  UNL1       -0.4755
     11 CL        140.6028  142.6147  167.9634 Cl      1  UNL1       -0.0822
     12 C         141.3129  141.7145  166.9962 C.ar    1  UNL1        0.0579
     13 C         141.8620  142.2726  165.7168 C.ar    1  UNL1        0.0145
     14 C         142.5721  141.3724  164.7496 C.ar    1  UNL1        0.0378
     15 C         142.7331  139.9141  165.0619 C.ar    1  UNL1        0.1386
     16 C         142.1841  139.3561  166.3414 C.ar    1  UNL1        0.0378
     17 C         141.4740  140.2563  167.3086 C.ar    1  UNL1        0.0145
     18 C         138.3340  142.0723  164.6314 C.3     1  UNL1        0.0496
     19 C         137.6472  142.6789  163.4438 C.3     1  UNL1        0.0536
     20 C         137.6575  144.1663  163.2503 C.3     1  UNL1        0.2058
     21 O         138.5422  144.7807  162.2063 O.3     1  UNL1       -0.4755
     22 C         140.0288  144.5942  162.2787 C.ar    1  UNL1        0.1386
     23 C         140.8178  145.2705  163.3605 C.ar    1  UNL1        0.0378
     24 C         142.3043  145.0840  163.4329 C.ar    1  UNL1        0.0145
     25 C         143.0021  144.2212  162.4235 C.ar    1  UNL1        0.0579
     26 CL        144.4886  144.0347  162.4959 Cl      1  UNL1       -0.0822
     27 C         142.2131  143.5449  161.3417 C.ar    1  UNL1        0.0145
     28 C         140.7265  143.7315  161.2693 C.ar    1  UNL1        0.0378
@<TRIPOS>BOND
     1    11    12    1
     2    12    13   ar
     3    13    14   ar
     4    14    15   ar
     5    15    10    1
     6    10     9    1
     7     9     8    1
     8     8     7    1
     9     7     1    1
    10     1     2   ar
    11     2     3   ar
    12     3     4   ar
    13     4     5   ar
    14     5    18    1
    15    18    19    1
    16    19    20    1
    17    20    21    1
    18    21    22    1
    19    22    23   ar
    20    23    24   ar
    21    24    25   ar
    22    25    26    1
    23    25    27   ar
    24    27    28   ar
    25     5     6   ar
    26    15    16   ar
    27    16    17   ar
    28    17    12   ar
    29     6     1   ar
    30    28    22   ar
@<TRIPOS>MOLECULE
*****
 28 30 0 0 0
SMALL
GASTEIGER

@<TRIPOS>ATOM
      1 C         141.2084  142.7099  164.6017 C.ar    1  UNL1        0.0587
      2 C         140.0241  142.7671  165.5204 C.ar    1  UNL1        0.0147
      3 C         139.4211  141.4985  166.0466 C.ar    1  UNL1        0.0024
      4 C         140.0024  140.1726  165.6540 C.ar    1  UNL1        0.0147
      5 C         141.1867  140.1153  164.7352 C.ar    1  UNL1        0.0587
      6 N         141.7898  141.3840  164.2091 N.ar    1  UNL1       -0.2540
      7 C         141.8114  143.9786  164.0755 C.3     1  UNL1        0.0496
      8 C         140.9257  145.1254  163.6874 C.3     1  UNL1        0.0536
      9 C         140.5469  145.3274  162.2502 C.3     1  UNL1        0.2058
     10 O         139.2543  144.7720  161.7300 O.3     1  UNL1       -0.4755
     11 CL        137.9817  138.9534  162.4548 Cl      1  UNL1       -0.0822
     12 C         138.2998  140.4081  162.2736 C.ar    1  UNL1        0.0579
     13 C         137.4244  141.4512  162.9023 C.ar    1  UNL1        0.0145
     14 C         137.7426  142.9059  162.7211 C.ar    1  UNL1        0.0378
     15 C         138.9361  143.3173  161.9112 C.ar    1  UNL1        0.1386
     16 C         139.8116  142.2741  161.2825 C.ar    1  UNL1        0.0378
     17 C         139.4934  140.8195  161.4637 C.ar    1  UNL1        0.0145
     18 C         141.7680  138.7895  164.3427 C.3     1  UNL1        0.0496
     19 C         142.6006  138.0161  165.3218 C.3     1  UNL1        0.0536
     20 C         143.4932  138.7414  166.2847 C.3     1  UNL1        0.2058
     21 O         143.1217  138.8235  167.7356 O.3     1  UNL1       -0.4755
     22 C         142.4270  140.0434  168.2641 C.ar    1  UNL1        0.1386
     23 C         142.9080  141.4091  167.8725 C.ar    1  UNL1        0.0378
     24 C         142.2133  142.6290  168.4010 C.ar    1  UNL1        0.0145
     25 C         141.0376  142.4832  169.3210 C.ar    1  UNL1        0.0579
     26 CL        140.3429  143.7030  169.8495 Cl      1  UNL1       -0.0822
     27 C         140.5566  141.1174  169.7126 C.ar    1  UNL1        0.0145
     28 C         141.2513  139.8975  169.1841 C.ar    1  UNL1        0.0378
@<TRIPOS>BOND
     1    11    12    1
     2    12    13   ar
     3    13    14   ar
     4    14    15   ar
     5    15    10    1
     6    10     9    1
     7     9     8    1
     8     8     7    1
     9     7     1    1
    10     1     2   ar
    11     2     3   ar
    12     3     4   ar
    13     4     5   ar
    14     5    18    1
    15    18    19    1
    16    19    20    1
    17    20    21    1
    18    21    22    1
    19    22    23   ar
    20    23    24   ar
    21    24    25   ar
    22    25    26    1
    23    25    27   ar
    24    27    28   ar
    25     5     6   ar
    26    15    16   ar
    27    16    17   ar
    28    17    12   ar
    29     6     1   ar
    30    28    22   ar
@<TRIPOS>MOLECULE
*****
 28 30 0 0 0
SMALL
GASTEIGER

@<TRIPOS>ATOM
      1 C         139.8040  141.6296  164.3868 C.ar    1  UNL1        0.0587
      2 C         139.3128  142.6600  165.3599 C.ar    1  UNL1        0.0147
      3 C         139.6605  144.1055  165.1608 C.ar    1  UNL1        0.0024
      4 C         140.4994  144.5206  163.9887 C.ar    1  UNL1        0.0147
      5 C         140.9906  143.4901  163.0155 C.ar    1  UNL1        0.0587
      6 N         140.6430  142.0446  163.2146 N.ar    1  UNL1       -0.2540
      7 C         139.4563  140.1841  164.5859 C.3     1  UNL1        0.0496
      8 C         139.7633  139.5117  165.8913 C.3     1  UNL1        0.0536
      9 C         138.7439  139.5096  166.9917 C.3     1  UNL1        0.2058
     10 O         139.1864  139.5623  168.4240 O.3     1  UNL1       -0.4755
     11 CL        144.1705  142.5507  169.9163 Cl      1  UNL1       -0.0822
     12 C         142.9245  141.8036  169.5432 C.ar    1  UNL1        0.0579
     13 C         142.8718  140.3119  169.6910 C.ar    1  UNL1        0.0145
     14 C         141.6258  139.5648  169.3179 C.ar    1  UNL1        0.0378
     15 C         140.4324  140.3094  168.7971 C.ar    1  UNL1        0.1386
     16 C         140.4850  141.8011  168.6493 C.ar    1  UNL1        0.0378
     17 C         141.7311  142.5482  169.0224 C.ar    1  UNL1        0.0145
     18 C         141.8295  143.9052  161.8434 C.3     1  UNL1        0.0496
     19 C         143.0941  143.1635  161.5260 C.3     1  UNL1        0.0536
     20 C         144.3935  143.6020  162.1338 C.3     1  UNL1        0.2058
     21 O         144.6377  143.4100  163.6012 O.3     1  UNL1       -0.4755
     22 C         144.3428  142.0871  164.2439 C.ar    1  UNL1        0.1386
     23 C         143.3745  142.0077  165.3867 C.ar    1  UNL1        0.0378
     24 C         143.0796  140.6849  166.0294 C.ar    1  UNL1        0.0145
     25 C         143.7530  139.4413  165.5292 C.ar    1  UNL1        0.0579
     26 CL        143.4580  138.1184  166.1718 Cl      1  UNL1       -0.0822
     27 C         144.7213  139.5207  164.3863 C.ar    1  UNL1        0.0145
     28 C         145.0162  140.8436  163.7437 C.ar    1  UNL1        0.0378
@<TRIPOS>BOND
     1    11    12    1
     2    12    13   ar
     3    13    14   ar
     4    14    15   ar
     5    15    10    1
     6    10     9    1
     7     9     8    1
     8     8     7    1
     9     7     1    1
    10     1     2   ar
    11     2     3   ar
    12     3     4   ar
    13     4     5   ar
    14     5    18    1
    15    18    19    1
    16    19    20    1
    17    20    21    1
    18    21    22    1
    19    22    23   ar
    20    23    24   ar
    21    24    25   ar
    22    25    26    1
    23    25    27   ar
    24    27    28   ar
    25     5     6   ar
    26    15    16   ar
    27    16    17   ar
    28    17    12   ar
    29     6     1   ar
    30    28    22   ar
@<TRIPOS>MOLECULE
*****
 28 30 0 0 0
SMALL
GASTEIGER

@<TRIPOS>ATOM
      1 C         139.5381  138.7029  163.9868 C.ar    1  UNL1        0.0587
      2 C         138.6808  138.5901  165.2125 C.ar    1  UNL1        0.0147
      3 C         138.8276  139.5858  166.3247 C.ar    1  UNL1        0.0024
      4 C         139.8317  140.6943  166.2113 C.ar    1  UNL1        0.0147
      5 C         140.6891  140.8072  164.9856 C.ar    1  UNL1        0.0587
      6 N         140.5422  139.8115  163.8733 N.ar    1  UNL1       -0.2540
      7 C         139.3912  137.7072  162.8746 C.3     1  UNL1        0.0496
      8 C         138.9324  138.1585  161.5197 C.3     1  UNL1        0.0536
      9 C         137.7062  139.0126  161.3892 C.3     1  UNL1        0.2058
     10 O         137.8277  140.4328  160.9222 O.3     1  UNL1       -0.4755
     11 CL        138.7989  144.8242  164.8937 Cl      1  UNL1       -0.0822
     12 C         138.5561  143.7263  163.9008 C.ar    1  UNL1        0.0579
     13 C         137.5623  142.6451  164.2063 C.ar    1  UNL1        0.0145
     14 C         137.3195  141.5473  163.2134 C.ar    1  UNL1        0.0378
     15 C         138.0705  141.5307  161.9151 C.ar    1  UNL1        0.1386
     16 C         139.0643  142.6119  161.6096 C.ar    1  UNL1        0.0378
     17 C         139.3071  143.7097  162.6025 C.ar    1  UNL1        0.0145
     18 C         141.6932  141.9157  164.8721 C.3     1  UNL1        0.0496
     19 C         143.0604  141.7530  165.4672 C.3     1  UNL1        0.0536
     20 C         143.6012  142.7957  166.4001 C.3     1  UNL1        0.2058
     21 O         143.6084  142.5475  167.8794 O.3     1  UNL1       -0.4755
     22 C         142.4092  141.9381  168.5434 C.ar    1  UNL1        0.1386
     23 C         142.3993  140.4758  168.8775 C.ar    1  UNL1        0.0378
     24 C         141.2002  139.8664  169.5415 C.ar    1  UNL1        0.0145
     25 C         140.0111  140.7192  169.8713 C.ar    1  UNL1        0.0579
     26 CL        138.8121  140.1098  170.5353 Cl      1  UNL1       -0.0822
     27 C         140.0211  142.1815  169.5372 C.ar    1  UNL1        0.0145
     28 C         141.2202  142.7909  168.8732 C.ar    1  UNL1        0.0378
@<TRIPOS>BOND
     1    11    12    1
     2    12    13   ar
     3    13    14   ar
     4    14    15   ar
     5    15    10    1
     6    10     9    1
     7     9     8    1
     8     8     7    1
     9     7     1    1
    10     1     2   ar
    11     2     3   ar
    12     3     4   ar
    13     4     5   ar
    14     5    18    1
    15    18    19    1
    16    19    20    1
    17    20    21    1
    18    21    22    1
    19    22    23   ar
    20    23    24   ar
    21    24    25   ar
    22    25    26    1
    23    25    27   ar
    24    27    28   ar
    25     5     6   ar
    26    15    16   ar
    27    16    17   ar
    28    17    12   ar
    29     6     1   ar
    30    28    22   ar
@<TRIPOS>MOLECULE
*****
 28 30 0 0 0
SMALL
GASTEIGER

@<TRIPOS>ATOM
      1 C         141.6203  140.9643  164.8436 C.ar    1  UNL1        0.0587
      2 C         141.9743  141.9065  165.9557 C.ar    1  UNL1        0.0147
      3 C         143.2509  142.6919  165.8955 C.ar    1  UNL1        0.0024
      4 C         144.1734  142.5350  164.7232 C.ar    1  UNL1        0.0147
      5 C         143.8194  141.5927  163.6111 C.ar    1  UNL1        0.0587
      6 N         142.5428  140.8073  163.6712 N.ar    1  UNL1       -0.2540
      7 C         140.3437  140.1789  164.9038 C.3     1  UNL1        0.0496
      8 C         139.3006  140.5204  165.9262 C.3     1  UNL1        0.0536
      9 C         138.9015  139.5071  166.9577 C.3     1  UNL1        0.2058
     10 O         139.1718  139.7685  168.4098 O.3     1  UNL1       -0.4755
     11 CL        144.1528  142.6798  170.0574 Cl      1  UNL1       -0.0822
     12 C         142.9075  141.9520  169.6455 C.ar    1  UNL1        0.0579
     13 C         141.5949  142.6766  169.6022 C.ar    1  UNL1        0.0145
     14 C         140.3497  141.9488  169.1903 C.ar    1  UNL1        0.0378
     15 C         140.4171  140.4964  168.8217 C.ar    1  UNL1        0.1386
     16 C         141.7297  139.7718  168.8650 C.ar    1  UNL1        0.0378
     17 C         142.9749  140.4996  169.2769 C.ar    1  UNL1        0.0145
     18 C         144.7419  141.4358  162.4388 C.3     1  UNL1        0.0496
     19 C         144.8434  142.5256  161.4131 C.3     1  UNL1        0.0536
     20 C         143.5997  143.1777  160.8862 C.3     1  UNL1        0.2058
     21 O         142.9878  144.3317  161.6237 O.3     1  UNL1       -0.4755
     22 C         141.6932  144.1500  162.3594 C.ar    1  UNL1        0.1386
     23 C         141.4219  144.9389  163.6060 C.ar    1  UNL1        0.0378
     24 C         140.1274  144.7572  164.3417 C.ar    1  UNL1        0.0145
     25 C         139.1042  143.7866  163.8307 C.ar    1  UNL1        0.0579
     26 CL        137.8097  143.6049  164.5664 Cl      1  UNL1       -0.0822
     27 C         139.3755  142.9976  162.5842 C.ar    1  UNL1        0.0145
     28 C         140.6701  143.1794  161.8485 C.ar    1  UNL1        0.0378
@<TRIPOS>BOND
     1    11    12    1
     2    12    13   ar
     3    13    14   ar
     4    14    15   ar
     5    15    10    1
     6    10     9    1
     7     9     8    1
     8     8     7    1
     9     7     1    1
    10     1     2   ar
    11     2     3   ar
    12     3     4   ar
    13     4     5   ar
    14     5    18    1
    15    18    19    1
    16    19    20    1
    17    20    21    1
    18    21    22    1
    19    22    23   ar
    20    23    24   ar
    21    24    25   ar
    22    25    26    1
    23    25    27   ar
    24    27    28   ar
    25     5     6   ar
    26    15    16   ar
    27    16    17   ar
    28    17    12   ar
    29     6     1   ar
    30    28    22   ar
@<TRIPOS>MOLECULE
*****
 28 30 0 0 0
SMALL
GASTEIGER

@<TRIPOS>ATOM
      1 C         142.3320  140.7724  164.8510 C.ar    1  UNL1        0.0587
      2 C         142.3142  140.3110  166.2781 C.ar    1  UNL1        0.0147
      3 C         141.3375  140.9082  167.2473 C.ar    1  UNL1        0.0024
      4 C         140.3786  141.9669  166.7894 C.ar    1  UNL1        0.0147
      5 C         140.3964  142.4284  165.3622 C.ar    1  UNL1        0.0587
      6 N         141.3731  141.8312  164.3930 N.ar    1  UNL1       -0.2540
      7 C         143.3088  140.1752  163.8818 C.3     1  UNL1        0.0496
      8 C         144.7829  140.3414  164.1042 C.3     1  UNL1        0.0536
      9 C         145.3993  141.7081  164.0562 C.3     1  UNL1        0.2058
     10 O         145.2207  142.5691  162.8410 O.3     1  UNL1       -0.4755
     11 CL        140.3021  145.9558  162.2602 Cl      1  UNL1       -0.0822
     12 C         141.5317  145.1091  162.4054 C.ar    1  UNL1        0.0579
     13 C         142.4220  145.2784  163.6007 C.ar    1  UNL1        0.0145
     14 C         143.6517  144.4317  163.7459 C.ar    1  UNL1        0.0378
     15 C         143.9910  143.4158  162.6958 C.ar    1  UNL1        0.1386
     16 C         143.1007  143.2465  161.5006 C.ar    1  UNL1        0.0378
     17 C         141.8711  144.0932  161.3554 C.ar    1  UNL1        0.0145
     18 C         139.4375  143.4870  164.9043 C.3     1  UNL1        0.0496
     19 C         138.0076  143.1325  164.6222 C.3     1  UNL1        0.0536
     20 C         137.6287  142.5421  163.2964 C.3     1  UNL1        0.2058
     21 O         137.2385  141.0968  163.2030 O.3     1  UNL1       -0.4755
     22 C         138.2331  140.0277  163.5466 C.ar    1  UNL1        0.1386
     23 C         139.1823  139.5223  162.5008 C.ar    1  UNL1        0.0378
     24 C         140.1768  138.4533  162.8443 C.ar    1  UNL1        0.0145
     25 C         140.2223  137.8897  164.2337 C.ar    1  UNL1        0.0579
     26 CL        141.2169  136.8207  164.5772 Cl      1  UNL1       -0.0822
     27 C         139.2732  138.3951  165.2795 C.ar    1  UNL1        0.0145
     28 C         138.2786  139.4642  164.9359 C.ar    1  UNL1        0.0378
@<TRIPOS>BOND
     1    11    12    1
     2    12    13   ar
     3    13    14   ar
     4    14    15   ar
     5    15    10    1
     6    10     9    1
     7     9     8    1
     8     8     7    1
     9     7     1    1
    10     1     2   ar
    11     2     3   ar
    12     3     4   ar
    13     4     5   ar
    14     5    18    1
    15    18    19    1
    16    19    20    1
    17    20    21    1
    18    21    22    1
    19    22    23   ar
    20    23    24   ar
    21    24    25   ar
    22    25    26    1
    23    25    27   ar
    24    27    28   ar
    25     5     6   ar
    26    15    16   ar
    27    16    17   ar
    28    17    12   ar
    29     6     1   ar
    30    28    22   ar
@<TRIPOS>MOLECULE
*****
 28 30 0 0 0
SMALL
GASTEIGER

@<TRIPOS>ATOM
      1 C         141.8869  138.2993  163.3933 C.ar    1  UNL1        0.0587
      2 C         141.7801  137.8218  164.8112 C.ar    1  UNL1        0.0147
      3 C         142.4544  138.5850  165.9125 C.ar    1  UNL1        0.0024
      4 C         143.2354  139.8259  165.5958 C.ar    1  UNL1        0.0147
      5 C         143.3422  140.3035  164.1778 C.ar    1  UNL1        0.0587
      6 N         142.6679  139.5402  163.0766 N.ar    1  UNL1       -0.2540
      7 C         141.2126  137.5360  162.2920 C.3     1  UNL1        0.0496
      8 C         139.8885  137.9989  161.7604 C.3     1  UNL1        0.0536
      9 C         138.6716  137.9544  162.6363 C.3     1  UNL1        0.2058
     10 O         138.1210  139.2216  163.2202 O.3     1  UNL1       -0.4755
     11 CL        140.3148  141.3459  168.3850 Cl      1  UNL1       -0.0822
     12 C         139.7663  140.8148  167.0938 C.ar    1  UNL1        0.0579
     13 C         140.0446  141.5353  165.8079 C.ar    1  UNL1        0.0145
     14 C         139.4962  141.0042  164.5168 C.ar    1  UNL1        0.0378
     15 C         138.6695  139.7527  164.5114 C.ar    1  UNL1        0.1386
     16 C         138.3912  139.0322  165.7972 C.ar    1  UNL1        0.0378
     17 C         138.9396  139.5633  167.0884 C.ar    1  UNL1        0.0145
     18 C         144.1233  141.5443  163.8612 C.3     1  UNL1        0.0496
     19 C         143.8468  142.3023  162.5967 C.3     1  UNL1        0.0536
     20 C         144.4470  143.6613  162.3904 C.3     1  UNL1        0.2058
     21 O         143.5761  144.8815  162.4418 O.3     1  UNL1       -0.4755
     22 C         142.0938  144.7380  162.6218 C.ar    1  UNL1        0.1386
     23 C         141.4847  144.8975  163.9833 C.ar    1  UNL1        0.0378
     24 C         140.0026  144.7539  164.1633 C.ar    1  UNL1        0.0145
     25 C         139.1294  144.4508  162.9819 C.ar    1  UNL1        0.0579
     26 CL        137.6472  144.3073  163.1619 Cl      1  UNL1       -0.0822
     27 C         139.7384  144.2913  161.6204 C.ar    1  UNL1        0.0145
     28 C         141.2207  144.4349  161.4404 C.ar    1  UNL1        0.0378
@<TRIPOS>BOND
     1    11    12    1
     2    12    13   ar
     3    13    14   ar
     4    14    15   ar
     5    15    10    1
     6    10     9    1
     7     9     8    1
     8     8     7    1
     9     7     1    1
    10     1     2   ar
    11     2     3   ar
    12     3     4   ar
    13     4     5   ar
    14     5    18    1
    15    18    19    1
    16    19    20    1
    17    20    21    1
    18    21    22    1
    19    22    23   ar
    20    23    24   ar
    21    24    25   ar
    22    25    26    1
    23    25    27   ar
    24    27    28   ar
    25     5     6   ar
    26    15    16   ar
    27    16    17   ar
    28    17    12   ar
    29     6     1   ar
    30    28    22   ar
@<TRIPOS>MOLECULE
*****
 28 30 0 0 0
SMALL
GASTEIGER

@<TRIPOS>ATOM
      1 C         138.9895  140.5851  165.6198 C.ar    1  UNL1        0.0587
      2 C         140.1247  140.8408  166.5664 C.ar    1  UNL1        0.0147
      3 C         140.6022  142.2428  166.8036 C.ar    1  UNL1        0.0024
      4 C         139.9445  143.3892  166.0942 C.ar    1  UNL1        0.0147
      5 C         138.8092  143.1336  165.1476 C.ar    1  UNL1        0.0587
      6 N         138.3318  141.7315  164.9104 N.ar    1  UNL1       -0.2540
      7 C         138.5120  139.1831  165.3826 C.3     1  UNL1        0.0496
      8 C         138.6464  138.5650  164.0224 C.3     1  UNL1        0.0536
      9 C         139.3087  137.2280  163.8683 C.3     1  UNL1        0.2058
     10 O         140.5146  137.0855  162.9877 O.3     1  UNL1       -0.4755
     11 CL        145.5403  140.1009  164.2719 Cl      1  UNL1       -0.0822
     12 C         144.2839  139.3471  163.9509 C.ar    1  UNL1        0.0579
     13 C         143.3749  138.8988  165.0566 C.ar    1  UNL1        0.0145
     14 C         142.1185  138.1449  164.7356 C.ar    1  UNL1        0.0378
     15 C         141.7710  137.8393  163.3088 C.ar    1  UNL1        0.1386
     16 C         142.6800  138.2877  162.2030 C.ar    1  UNL1        0.0378
     17 C         143.9364  139.0415  162.5241 C.ar    1  UNL1        0.0145
     18 C         138.1516  144.2800  164.4383 C.3     1  UNL1        0.0496
     19 C         137.7417  144.1377  163.0024 C.3     1  UNL1        0.0536
     20 C         138.6953  143.5499  162.0049 C.3     1  UNL1        0.2058
     21 O         139.9877  144.2480  161.7013 O.3     1  UNL1       -0.4755
     22 C         141.1644  144.0790  162.6162 C.ar    1  UNL1        0.1386
     23 C         141.8288  145.2837  163.2139 C.ar    1  UNL1        0.0378
     24 C         143.0054  145.1148  164.1287 C.ar    1  UNL1        0.0145
     25 C         143.5177  143.7411  164.4459 C.ar    1  UNL1        0.0579
     26 CL        144.6944  143.5721  165.3607 Cl      1  UNL1       -0.0822
     27 C         142.8534  142.5363  163.8481 C.ar    1  UNL1        0.0145
     28 C         141.6767  142.7054  162.9333 C.ar    1  UNL1        0.0378
@<TRIPOS>BOND
     1    11    12    1
     2    12    13   ar
     3    13    14   ar
     4    14    15   ar
     5    15    10    1
     6    10     9    1
     7     9     8    1
     8     8     7    1
     9     7     1    1
    10     1     2   ar
    11     2     3   ar
    12     3     4   ar
    13     4     5   ar
    14     5    18    1
    15    18    19    1
    16    19    20    1
    17    20    21    1
    18    21    22    1
    19    22    23   ar
    20    23    24   ar
    21    24    25   ar
    22    25    26    1
    23    25    27   ar
    24    27    28   ar
    25     5     6   ar
    26    15    16   ar
    27    16    17   ar
    28    17    12   ar
    29     6     1   ar
    30    28    22   ar
@<TRIPOS>MOLECULE
*****
 28 30 0 0 0
SMALL
GASTEIGER

@<TRIPOS>ATOM
      1 C         142.3766  139.4008  164.3625 C.ar    1  UNL1        0.0587
      2 C         142.1844  138.0998  165.0837 C.ar    1  UNL1        0.0147
      3 C         141.1257  137.1394  164.6290 C.ar    1  UNL1        0.0024
      4 C         140.2592  137.4801  163.4530 C.ar    1  UNL1        0.0147
      5 C         140.4513  138.7813  162.7317 C.ar    1  UNL1        0.0587
      6 N         141.5100  139.7416  163.1865 N.ar    1  UNL1       -0.2540
      7 C         143.4353  140.3612  164.8173 C.3     1  UNL1        0.0496
      8 C         144.6964  140.5197  164.0207 C.3     1  UNL1        0.0536
      9 C         145.3710  141.8571  163.9425 C.3     1  UNL1        0.2058
     10 O         144.9841  142.8307  162.8690 O.3     1  UNL1       -0.4755
     11 CL        139.5489  145.3710  162.9398 Cl      1  UNL1       -0.0822
     12 C         140.9077  144.7359  162.9221 C.ar    1  UNL1        0.0579
     13 C         141.1794  143.5711  162.0169 C.ar    1  UNL1        0.0145
     14 C         142.5383  142.9360  161.9992 C.ar    1  UNL1        0.0378
     15 C         143.6253  143.4657  162.8867 C.ar    1  UNL1        0.1386
     16 C         143.3536  144.6305  163.7918 C.ar    1  UNL1        0.0378
     17 C         141.9948  145.2656  163.8095 C.ar    1  UNL1        0.0145
     18 C         139.5848  139.1220  161.5557 C.3     1  UNL1        0.0496
     19 C         138.1518  139.5112  161.7677 C.3     1  UNL1        0.0536
     20 C         137.8054  140.9212  162.1440 C.3     1  UNL1        0.2058
     21 O         137.3527  141.2356  163.5391 O.3     1  UNL1       -0.4755
     22 C         138.2754  140.9999  164.6980 C.ar    1  UNL1        0.1386
     23 C         138.1397  139.7548  165.5236 C.ar    1  UNL1        0.0378
     24 C         139.0624  139.5191  166.6825 C.ar    1  UNL1        0.0145
     25 C         140.1208  140.5285  167.0159 C.ar    1  UNL1        0.0579
     26 CL        141.0434  140.2928  168.1748 Cl      1  UNL1       -0.0822
     27 C         140.2564  141.7735  166.1904 C.ar    1  UNL1        0.0145
     28 C         139.3337  142.0092  165.0314 C.ar    1  UNL1        0.0378
@<TRIPOS>BOND
     1    11    12    1
     2    12    13   ar
     3    13    14   ar
     4    14    15   ar
     5    15    10    1
     6    10     9    1
     7     9     8    1
     8     8     7    1
     9     7     1    1
    10     1     2   ar
    11     2     3   ar
    12     3     4   ar
    13     4     5   ar
    14     5    18    1
    15    18    19    1
    16    19    20    1
    17    20    21    1
    18    21    22    1
    19    22    23   ar
    20    23    24   ar
    21    24    25   ar
    22    25    26    1
    23    25    27   ar
    24    27    28   ar
    25     5     6   ar
    26    15    16   ar
    27    16    17   ar
    28    17    12   ar
    29     6     1   ar
    30    28    22   ar
