@<TRIPOS>MOLECULE
*****
 24 26 0 0 0
SMALL
GASTEIGER

@<TRIPOS>ATOM
      1 C         138.9892  142.5611  163.5899 C.ar    1  UNL1        0.0218
      2 C         137.8136  143.2183  162.9295 C.ar    1  UNL1        0.0989
      3 N         137.9297  144.6234  162.4175 N.ar    1  UNL1       -0.2426
      4 C         139.2215  145.3714  162.5659 C.ar    1  UNL1        0.0959
      5 C         140.3970  144.7142  163.2264 C.ar    1  UNL1        0.0128
      6 C         140.2808  143.3091  163.7384 C.ar    1  UNL1        0.0003
      7 C         138.8606  140.0056  163.1394 C.ar    1  UNL1        0.1409
      8 C         138.7444  138.6005  163.6514 C.ar    1  UNL1        0.0665
      9 C         138.6406  138.3458  165.1260 C.ar    1  UNL1        0.1432
     10 F         138.5244  136.9406  165.6380 F       1  UNL1       -0.2041
     11 C         138.6530  139.4961  166.0885 C.ar    1  UNL1        0.0298
     12 C         138.7692  140.9012  165.5765 C.ar    1  UNL1        0.0054
     13 C         138.8730  141.1560  164.1019 C.ar    1  UNL1        0.0356
     14 C         137.7597  140.0901  160.7877 C.3     1  UNL1        0.2525
     15 O         138.9644  140.2604  161.6648 O.3     1  UNL1       -0.4714
     16 C         141.6887  145.4622  163.3749 C.3     1  UNL1        0.0971
     17 N         142.8633  145.1090  162.5114 N.3     1  UNL1       -0.2948
     18 H         143.4423  145.9462  162.4452 H       1  UNL1        0.1235
     19 C         143.7730  143.9835  162.9063 C.3     1  UNL1        0.0542
     20 C         144.3752  143.1013  161.8533 C.3     1  UNL1        0.0157
     21 C         145.2848  141.9758  162.2481 C.3     1  UNL1        0.0014
     22 C         145.5922  141.7326  163.6960 C.3     1  UNL1        0.0001
     23 C         144.9900  142.6149  164.7490 C.3     1  UNL1        0.0014
     24 C         144.0804  143.7403  164.3542 C.3     1  UNL1        0.0157
@<TRIPOS>BOND
     1    14    15    1
     2    15     7    1
     3     7     8   ar
     4     8     9   ar
     5     9    10    1
     6     9    11   ar
     7    11    12   ar
     8    12    13   ar
     9    13     1    1
    10     1     2   ar
    11     2     3   ar
    12     3     4   ar
    13     4     5   ar
    14     5    16    1
    15    16    17    1
    16    17    19    1
    17    19    20    1
    18    20    21    1
    19    21    22    1
    20    22    23    1
    21    23    24    1
    22     5     6   ar
    23    13     7   ar
    24     6     1   ar
    25    24    19    1
    26    17    18    1
@<TRIPOS>MOLECULE
*****
 24 26 0 0 0
SMALL
GASTEIGER

@<TRIPOS>ATOM
      1 C         139.7363  140.4205  168.0942 C.ar    1  UNL1        0.0218
      2 C         138.7254  139.6159  168.8564 C.ar    1  UNL1        0.0989
      3 N         137.7343  138.7648  168.1194 N.ar    1  UNL1       -0.2426
      4 C         137.7539  138.7182  166.6202 C.ar    1  UNL1        0.0959
      5 C         138.7647  139.5227  165.8580 C.ar    1  UNL1        0.0128
      6 C         139.7559  140.3739  166.5951 C.ar    1  UNL1        0.0003
      7 C         142.0829  140.7240  169.1673 C.ar    1  UNL1        0.1409
      8 C         143.0740  141.5752  169.9043 C.ar    1  UNL1        0.0665
      9 C         142.7097  142.9740  170.3052 C.ar    1  UNL1        0.1432
     10 F         143.7008  143.8251  171.0422 F       1  UNL1       -0.2041
     11 C         141.3543  143.5216  169.9691 C.ar    1  UNL1        0.0298
     12 C         140.3632  142.6704  169.2322 C.ar    1  UNL1        0.0054
     13 C         140.7275  141.2717  168.8312 C.ar    1  UNL1        0.0356
     14 C         143.0155  139.0596  167.4039 C.3     1  UNL1        0.2525
     15 O         142.4472  139.3253  168.7663 O.3     1  UNL1       -0.4714
     16 C         138.7844  139.4762  164.3589 C.3     1  UNL1        0.0971
     17 N         139.4364  140.5818  163.5828 N.3     1  UNL1       -0.2948
     18 H         139.0983  140.5071  162.6233 H       1  UNL1        0.1235
     19 C         139.2401  142.0088  164.0012 C.3     1  UNL1        0.0542
     20 C         137.8542  142.5610  164.1564 C.3     1  UNL1        0.0157
     21 C         137.6580  143.9880  164.5748 C.3     1  UNL1        0.0014
     22 C         138.8477  144.8628  164.8380 C.3     1  UNL1        0.0001
     23 C         140.2336  144.3106  164.6828 C.3     1  UNL1        0.0014
     24 C         140.4299  142.8836  164.2644 C.3     1  UNL1        0.0157
@<TRIPOS>BOND
     1    14    15    1
     2    15     7    1
     3     7     8   ar
     4     8     9   ar
     5     9    10    1
     6     9    11   ar
     7    11    12   ar
     8    12    13   ar
     9    13     1    1
    10     1     2   ar
    11     2     3   ar
    12     3     4   ar
    13     4     5   ar
    14     5    16    1
    15    16    17    1
    16    17    19    1
    17    19    20    1
    18    20    21    1
    19    21    22    1
    20    22    23    1
    21    23    24    1
    22     5     6   ar
    23    13     7   ar
    24     6     1   ar
    25    24    19    1
    26    17    18    1
@<TRIPOS>MOLECULE
*****
 24 26 0 0 0
SMALL
GASTEIGER

@<TRIPOS>ATOM
      1 C         139.0777  142.5630  163.5806 C.ar    1  UNL1        0.0218
      2 C         137.8725  143.2150  162.9705 C.ar    1  UNL1        0.0989
      3 N         137.9532  144.6301  162.4795 N.ar    1  UNL1       -0.2426
      4 C         139.2392  145.3931  162.5985 C.ar    1  UNL1        0.0959
      5 C         140.4444  144.7410  163.2085 C.ar    1  UNL1        0.0128
      6 C         140.3637  143.3259  163.6996 C.ar    1  UNL1        0.0003
      7 C         139.2331  140.8423  165.5211 C.ar    1  UNL1        0.1409
      8 C         139.1524  139.4273  166.0120 C.ar    1  UNL1        0.0665
      9 C         138.8355  138.3178  165.0536 C.ar    1  UNL1        0.1432
     10 F         138.7547  136.9027  165.5447 F       1  UNL1       -0.2041
     11 C         138.5993  138.6233  163.6042 C.ar    1  UNL1        0.0298
     12 C         138.6801  140.0384  163.1132 C.ar    1  UNL1        0.0054
     13 C         138.9970  141.1479  164.0716 C.ar    1  UNL1        0.0356
     14 C         140.8834  141.9926  167.1653 C.3     1  UNL1        0.2525
     15 O         139.5500  141.9518  166.4795 O.3     1  UNL1       -0.4714
     16 C         141.7304  145.5039  163.3276 C.3     1  UNL1        0.0971
     17 N         142.9086  145.1247  162.4803 N.3     1  UNL1       -0.2948
     18 H         143.4976  145.9542  162.4067 H       1  UNL1        0.1235
     19 C         143.8019  143.9951  162.9003 C.3     1  UNL1        0.0542
     20 C         144.4183  143.1017  161.8651 C.3     1  UNL1        0.0157
     21 C         145.3115  141.9722  162.2851 C.3     1  UNL1        0.0014
     22 C         145.5883  141.7363  163.7404 C.3     1  UNL1        0.0001
     23 C         144.9719  142.6298  164.7756 C.3     1  UNL1        0.0014
     24 C         144.0787  143.7592  164.3555 C.3     1  UNL1        0.0157
@<TRIPOS>BOND
     1    14    15    1
     2    15     7    1
     3     7     8   ar
     4     8     9   ar
     5     9    10    1
     6     9    11   ar
     7    11    12   ar
     8    12    13   ar
     9    13     1    1
    10     1     2   ar
    11     2     3   ar
    12     3     4   ar
    13     4     5   ar
    14     5    16    1
    15    16    17    1
    16    17    19    1
    17    19    20    1
    18    20    21    1
    19    21    22    1
    20    22    23    1
    21    23    24    1
    22     5     6   ar
    23    13     7   ar
    24     6     1   ar
    25    24    19    1
    26    17    18    1
@<TRIPOS>MOLECULE
*****
 24 26 0 0 0
SMALL
GASTEIGER

@<TRIPOS>ATOM
      1 C         142.7311  139.6095  165.5189 C.ar    1  UNL1        0.0218
      2 C         142.3548  138.5284  164.5495 C.ar    1  UNL1        0.0989
      3 N         143.0624  138.4237  163.2311 N.ar    1  UNL1       -0.2426
      4 C         144.1464  139.4001  162.8820 C.ar    1  UNL1        0.0959
      5 C         144.5227  140.4811  163.8515 C.ar    1  UNL1        0.0128
      6 C         143.8151  140.5857  165.1699 C.ar    1  UNL1        0.0003
      7 C         140.5903  140.1543  166.8865 C.ar    1  UNL1        0.1409
      8 C         139.8827  140.2589  168.2049 C.ar    1  UNL1        0.0665
      9 C         140.6082  139.9234  169.4742 C.ar    1  UNL1        0.1432
     10 F         139.9005  140.0281  170.7927 F       1  UNL1       -0.2041
     11 C         142.0413  139.4833  169.4251 C.ar    1  UNL1        0.0298
     12 C         142.7489  139.3786  168.1067 C.ar    1  UNL1        0.0054
     13 C         142.0234  139.7141  166.8374 C.ar    1  UNL1        0.0356
     14 C         138.6148  139.7469  165.2490 C.3     1  UNL1        0.2525
     15 O         139.8648  140.4898  165.6172 O.3     1  UNL1       -0.4714
     16 C         145.6067  141.4574  163.5025 C.3     1  UNL1        0.0971
     17 N         145.3523  142.5276  162.4828 N.3     1  UNL1       -0.2948
     18 H         145.3157  142.0657  161.5741 H       1  UNL1        0.1235
     19 C         144.1240  143.3829  162.5836 C.3     1  UNL1        0.0542
     20 C         143.1036  143.3625  161.4844 C.3     1  UNL1        0.0157
     21 C         141.8755  144.2177  161.5853 C.3     1  UNL1        0.0014
     22 C         141.6678  145.0933  162.7853 C.3     1  UNL1        0.0001
     23 C         142.6882  145.1137  163.8845 C.3     1  UNL1        0.0014
     24 C         143.9163  144.2585  163.7837 C.3     1  UNL1        0.0157
@<TRIPOS>BOND
     1    14    15    1
     2    15     7    1
     3     7     8   ar
     4     8     9   ar
     5     9    10    1
     6     9    11   ar
     7    11    12   ar
     8    12    13   ar
     9    13     1    1
    10     1     2   ar
    11     2     3   ar
    12     3     4   ar
    13     4     5   ar
    14     5    16    1
    15    16    17    1
    16    17    19    1
    17    19    20    1
    18    20    21    1
    19    21    22    1
    20    22    23    1
    21    23    24    1
    22     5     6   ar
    23    13     7   ar
    24     6     1   ar
    25    24    19    1
    26    17    18    1
@<TRIPOS>MOLECULE
*****
 24 26 0 0 0
SMALL
GASTEIGER

@<TRIPOS>ATOM
      1 C         139.4769  143.0935  164.7481 C.ar    1  UNL1        0.0218
      2 C         138.1019  143.6245  164.4700 C.ar    1  UNL1        0.0989
      3 N         137.8656  144.5088  163.2816 N.ar    1  UNL1       -0.2426
      4 C         139.0043  144.8620  162.3713 C.ar    1  UNL1        0.0959
      5 C         140.3793  144.3310  162.6494 C.ar    1  UNL1        0.0128
      6 C         140.6156  143.4467  163.8379 C.ar    1  UNL1        0.0003
      7 C         139.2032  140.7986  165.9349 C.ar    1  UNL1        0.1409
      8 C         139.4395  139.9144  167.1233 C.ar    1  UNL1        0.0665
      9 C         140.1857  140.4408  168.3133 C.ar    1  UNL1        0.1432
     10 F         140.4219  139.5565  169.5018 F       1  UNL1       -0.2041
     11 C         140.6955  141.8515  168.3149 C.ar    1  UNL1        0.0298
     12 C         140.4593  142.7357  167.1265 C.ar    1  UNL1        0.0054
     13 C         139.7131  142.2092  165.9365 C.ar    1  UNL1        0.0356
     14 C         139.1881  139.5147  163.6763 C.3     1  UNL1        0.2525
     15 O         138.4571  140.2721  164.7449 O.3     1  UNL1       -0.4714
     16 C         141.5180  144.6841  161.7392 C.3     1  UNL1        0.0971
     17 N         142.8526  145.0529  162.3161 N.3     1  UNL1       -0.2948
     18 H         142.6722  145.6903  163.0917 H       1  UNL1        0.1235
     19 C         143.7655  143.9832  162.8380 C.3     1  UNL1        0.0542
     20 C         144.0529  143.8937  164.3075 C.3     1  UNL1        0.0157
     21 C         144.9658  142.8241  164.8294 C.3     1  UNL1        0.0014
     22 C         145.5913  141.8439  163.8818 C.3     1  UNL1        0.0001
     23 C         145.3040  141.9333  162.4123 C.3     1  UNL1        0.0014
     24 C         144.3911  143.0030  161.8904 C.3     1  UNL1        0.0157
@<TRIPOS>BOND
     1    14    15    1
     2    15     7    1
     3     7     8   ar
     4     8     9   ar
     5     9    10    1
     6     9    11   ar
     7    11    12   ar
     8    12    13   ar
     9    13     1    1
    10     1     2   ar
    11     2     3   ar
    12     3     4   ar
    13     4     5   ar
    14     5    16    1
    15    16    17    1
    16    17    19    1
    17    19    20    1
    18    20    21    1
    19    21    22    1
    20    22    23    1
    21    23    24    1
    22     5     6   ar
    23    13     7   ar
    24     6     1   ar
    25    24    19    1
    26    17    18    1
@<TRIPOS>MOLECULE
*****
 24 26 0 0 0
SMALL
GASTEIGER

@<TRIPOS>ATOM
      1 C         140.2146  138.8693  164.7607 C.ar    1  UNL1        0.0218
      2 C         140.9006  137.6683  164.1801 C.ar    1  UNL1        0.0989
      3 N         140.5691  137.2147  162.7893 N.ar    1  UNL1       -0.2426
      4 C         139.5516  137.9620  161.9791 C.ar    1  UNL1        0.0959
      5 C         138.8656  139.1629  162.5598 C.ar    1  UNL1        0.0128
      6 C         139.1971  139.6165  163.9507 C.ar    1  UNL1        0.0003
      7 C         139.4493  139.5362  167.1523 C.ar    1  UNL1        0.1409
      8 C         139.7809  139.9898  168.5431 C.ar    1  UNL1        0.0665
      9 C         141.2092  140.2301  168.9331 C.ar    1  UNL1        0.1432
     10 F         141.5408  140.6838  170.3240 F       1  UNL1       -0.2041
     11 C         142.3060  140.0168  167.9324 C.ar    1  UNL1        0.0298
     12 C         141.9745  139.5632  166.5416 C.ar    1  UNL1        0.0054
     13 C         140.5461  139.3229  166.1516 C.ar    1  UNL1        0.0356
     14 C         137.3320  138.0310  167.1806 C.3     1  UNL1        0.2525
     15 O         138.0210  139.2959  166.7623 O.3     1  UNL1       -0.4714
     16 C         137.8481  139.9102  161.7497 C.3     1  UNL1        0.0971
     17 N         137.0345  140.9977  162.3863 N.3     1  UNL1       -0.2948
     18 H         136.6133  140.5979  163.2248 H       1  UNL1        0.1235
     19 C         137.6914  142.2808  162.8013 C.3     1  UNL1        0.0542
     20 C         138.5120  143.0567  161.8141 C.3     1  UNL1        0.0157
     21 C         139.1688  144.3398  162.2291 C.3     1  UNL1        0.0014
     22 C         139.0051  144.8468  163.6313 C.3     1  UNL1        0.0001
     23 C         138.1846  144.0709  164.6184 C.3     1  UNL1        0.0014
     24 C         137.5277  142.7878  164.2034 C.3     1  UNL1        0.0157
@<TRIPOS>BOND
     1    14    15    1
     2    15     7    1
     3     7     8   ar
     4     8     9   ar
     5     9    10    1
     6     9    11   ar
     7    11    12   ar
     8    12    13   ar
     9    13     1    1
    10     1     2   ar
    11     2     3   ar
    12     3     4   ar
    13     4     5   ar
    14     5    16    1
    15    16    17    1
    16    17    19    1
    17    19    20    1
    18    20    21    1
    19    21    22    1
    20    22    23    1
    21    23    24    1
    22     5     6   ar
    23    13     7   ar
    24     6     1   ar
    25    24    19    1
    26    17    18    1
@<TRIPOS>MOLECULE
*****
 24 26 0 0 0
SMALL
GASTEIGER

@<TRIPOS>ATOM
      1 C         142.2383  141.5501  165.6200 C.ar    1  UNL1        0.0218
      2 C         142.7575  140.6148  164.5686 C.ar    1  UNL1        0.0989
      3 N         143.2490  141.1568  163.2591 N.ar    1  UNL1       -0.2426
      4 C         143.2214  142.6342  163.0011 C.ar    1  UNL1        0.0959
      5 C         142.7022  143.5696  164.0526 C.ar    1  UNL1        0.0128
      6 C         142.2107  143.0275  165.3621 C.ar    1  UNL1        0.0003
      7 C         140.2753  140.8395  167.1665 C.ar    1  UNL1        0.1409
      8 C         139.7839  140.2974  168.4759 C.ar    1  UNL1        0.0665
      9 C         140.7639  139.9239  169.5483 C.ar    1  UNL1        0.1432
     10 F         140.2724  139.3818  170.8578 F       1  UNL1       -0.2041
     11 C         142.2354  140.0925  169.3113 C.ar    1  UNL1        0.0298
     12 C         142.7269  140.6345  168.0019 C.ar    1  UNL1        0.0054
     13 C         141.7468  141.0080  166.9295 C.ar    1  UNL1        0.0356
     14 C         138.5282  140.1440  165.3738 C.3     1  UNL1        0.2525
     15 O         139.2953  141.2130  166.0941 O.3     1  UNL1       -0.4714
     16 C         142.6746  145.0469  163.7947 C.3     1  UNL1        0.0971
     17 N         141.4063  145.7049  163.3382 N.3     1  UNL1       -0.2948
     18 H         141.5605  146.0058  162.3758 H       1  UNL1        0.1235
     19 C         140.1170  144.9383  163.3509 C.3     1  UNL1        0.0542
     20 C         139.6728  144.1975  162.1246 C.3     1  UNL1        0.0157
     21 C         138.3835  143.4310  162.1374 C.3     1  UNL1        0.0014
     22 C         137.5385  143.4053  163.3764 C.3     1  UNL1        0.0001
     23 C         137.9826  144.1462  164.6027 C.3     1  UNL1        0.0014
     24 C         139.2719  144.9127  164.5899 C.3     1  UNL1        0.0157
@<TRIPOS>BOND
     1    14    15    1
     2    15     7    1
     3     7     8   ar
     4     8     9   ar
     5     9    10    1
     6     9    11   ar
     7    11    12   ar
     8    12    13   ar
     9    13     1    1
    10     1     2   ar
    11     2     3   ar
    12     3     4   ar
    13     4     5   ar
    14     5    16    1
    15    16    17    1
    16    17    19    1
    17    19    20    1
    18    20    21    1
    19    21    22    1
    20    22    23    1
    21    23    24    1
    22     5     6   ar
    23    13     7   ar
    24     6     1   ar
    25    24    19    1
    26    17    18    1
@<TRIPOS>MOLECULE
*****
 24 26 0 0 0
SMALL
GASTEIGER

@<TRIPOS>ATOM
      1 C         140.6589  143.3539  165.4643 C.ar    1  UNL1        0.0218
      2 C         139.5284  144.0187  164.7364 C.ar    1  UNL1        0.0989
      3 N         139.8132  144.9192  163.5711 N.ar    1  UNL1       -0.2426
      4 C         141.2286  145.1548  163.1336 C.ar    1  UNL1        0.0959
      5 C         142.3591  144.4899  163.8616 C.ar    1  UNL1        0.0128
      6 C         142.0742  143.5894  165.0270 C.ar    1  UNL1        0.0003
      7 C         139.8895  141.0534  166.3949 C.ar    1  UNL1        0.1409
      8 C         139.6046  140.1530  167.5603 C.ar    1  UNL1        0.0665
      9 C         139.8043  140.6526  168.9605 C.ar    1  UNL1        0.1432
     10 F         139.5194  139.7521  170.1259 F       1  UNL1       -0.2041
     11 C         140.2889  142.0526  169.1953 C.ar    1  UNL1        0.0298
     12 C         140.5737  142.9530  168.0299 C.ar    1  UNL1        0.0054
     13 C         140.3740  142.4534  166.6297 C.ar    1  UNL1        0.0356
     14 C         140.7235  139.6727  164.3582 C.3     1  UNL1        0.2525
     15 O         139.6898  140.5538  164.9947 O.3     1  UNL1       -0.4714
     16 C         143.7744  144.7255  163.4242 C.3     1  UNL1        0.0971
     17 N         144.4209  143.7936  162.4425 N.3     1  UNL1       -0.2948
     18 H         145.3920  144.0915  162.3494 H       1  UNL1        0.1235
     19 C         144.4445  142.3183  162.7124 C.3     1  UNL1        0.0542
     20 C         143.6471  141.3852  161.8502 C.3     1  UNL1        0.0157
     21 C         143.6707  139.9099  162.1201 C.3     1  UNL1        0.0014
     22 C         144.4917  139.3677  163.2523 C.3     1  UNL1        0.0001
     23 C         145.2890  140.3007  164.1146 C.3     1  UNL1        0.0014
     24 C         145.2654  141.7760  163.8447 C.3     1  UNL1        0.0157
@<TRIPOS>BOND
     1    14    15    1
     2    15     7    1
     3     7     8   ar
     4     8     9   ar
     5     9    10    1
     6     9    11   ar
     7    11    12   ar
     8    12    13   ar
     9    13     1    1
    10     1     2   ar
    11     2     3   ar
    12     3     4   ar
    13     4     5   ar
    14     5    16    1
    15    16    17    1
    16    17    19    1
    17    19    20    1
    18    20    21    1
    19    21    22    1
    20    22    23    1
    21    23    24    1
    22     5     6   ar
    23    13     7   ar
    24     6     1   ar
    25    24    19    1
    26    17    18    1
@<TRIPOS>MOLECULE
*****
 24 26 0 0 0
SMALL
GASTEIGER

@<TRIPOS>ATOM
      1 C         139.7705  142.1632  165.9796 C.ar    1  UNL1        0.0218
      2 C         139.1771  140.8181  165.6821 C.ar    1  UNL1        0.0989
      3 N         138.1607  140.6720  164.5887 N.ar    1  UNL1       -0.2426
      4 C         137.7376  141.8710  163.7928 C.ar    1  UNL1        0.0959
      5 C         138.3310  143.2161  164.0903 C.ar    1  UNL1        0.0128
      6 C         139.3475  143.3622  165.1837 C.ar    1  UNL1        0.0003
      7 C         142.2459  142.1418  166.7680 C.ar    1  UNL1        0.1409
      8 C         143.2623  142.2879  167.8615 C.ar    1  UNL1        0.0665
      9 C         142.8196  142.6015  169.2599 C.ar    1  UNL1        0.1432
     10 F         143.8361  142.7476  170.3534 F       1  UNL1       -0.2041
     11 C         141.3606  142.7690  169.5649 C.ar    1  UNL1        0.0298
     12 C         140.3442  142.6229  168.4715 C.ar    1  UNL1        0.0054
     13 C         140.7869  142.3093  167.0731 C.ar    1  UNL1        0.0356
     14 C         143.0682  140.4249  165.0000 C.3     1  UNL1        0.2525
     15 O         142.6886  141.8281  165.3696 O.3     1  UNL1       -0.4714
     16 C         137.9080  144.4151  163.2944 C.3     1  UNL1        0.0971
     17 N         138.8580  145.0384  162.3151 N.3     1  UNL1       -0.2948
     18 H         138.8223  146.0458  162.4707 H       1  UNL1        0.1235
     19 C         140.3068  144.6499  162.3244 C.3     1  UNL1        0.0542
     20 C         141.2786  145.3986  163.1876 C.3     1  UNL1        0.0157
     21 C         142.7273  145.0100  163.1968 C.3     1  UNL1        0.0014
     22 C         143.2043  143.8728  162.3429 C.3     1  UNL1        0.0001
     23 C         142.2325  143.1241  161.4797 C.3     1  UNL1        0.0014
     24 C         140.7838  143.5126  161.4705 C.3     1  UNL1        0.0157
@<TRIPOS>BOND
     1    14    15    1
     2    15     7    1
     3     7     8   ar
     4     8     9   ar
     5     9    10    1
     6     9    11   ar
     7    11    12   ar
     8    12    13   ar
     9    13     1    1
    10     1     2   ar
    11     2     3   ar
    12     3     4   ar
    13     4     5   ar
    14     5    16    1
    15    16    17    1
    16    17    19    1
    17    19    20    1
    18    20    21    1
    19    21    22    1
    20    22    23    1
    21    23    24    1
    22     5     6   ar
    23    13     7   ar
    24     6     1   ar
    25    24    19    1
    26    17    18    1
