@<TRIPOS>MOLECULE
*****
 27 30 0 0 0
SMALL
GASTEIGER

@<TRIPOS>ATOM
      1 N         143.6565  143.4290  162.1852 N.ar    1  UNL1       -0.2291
      2 N         143.8342  144.7699  162.8336 N.ar    1  UNL1       -0.1635
      3 C         143.7681  144.5785  164.3198 C.ar    1  UNL1        0.1221
      4 C         143.5495  143.1193  164.5900 C.ar    1  UNL1        0.0416
      5 C         143.4043  142.3457  165.8669 C.ar    1  UNL1        0.0406
      6 C         143.1901  140.8617  165.8245 C.ar    1  UNL1        0.1455
      7 C         143.1212  140.1513  164.5052 C.ar    1  UNL1        0.0390
      8 C         143.2663  140.9249  163.2283 C.ar    1  UNL1        0.0223
      9 C         143.4805  142.4089  163.2707 C.ar    1  UNL1        0.0845
     10 C         144.3229  142.4049  158.5012 C.ar    1  UNL1        0.0843
     11 C         144.7385  142.4597  159.9414 C.ar    1  UNL1        0.0307
     12 C         143.6550  143.1561  160.7102 C.ar    1  UNL1        0.0899
     13 C         142.5699  143.5316  159.7452 C.ar    1  UNL1        0.0547
     14 S         142.9826  143.0674  158.3798 S.2     1  UNL1       -0.0803
     15 C         146.7254  142.0564  155.3616 C.3     1  UNL1        0.1110
     16 N         145.9388  142.6666  156.4835 N.am    1  UNL1       -0.2987
     17 C         145.1096  141.7946  157.3791 C.2     1  UNL1        0.2520
     18 O         145.0670  140.3124  157.1527 O.2     1  UNL1       -0.2696
     19 H         145.9667  143.6394  156.6322 H       1  UNL1        0.1498
     20 O         143.0449  140.0881  167.1014 O.3     1  UNL1       -0.4526
     21 C         141.8238  140.2694  167.9535 C.ar    1  UNL1        0.1557
     22 C         140.4747  139.8855  167.4220 C.ar    1  UNL1        0.0384
     23 C         139.2535  140.0668  168.2740 C.ar    1  UNL1        0.0032
     24 C         139.3816  140.6321  169.6576 C.ar    1  UNL1        0.0011
     25 C         140.7307  141.0160  170.1890 C.ar    1  UNL1        0.0145
     26 C         141.9518  140.8347  169.3370 C.ar    1  UNL1        0.0921
     27 CL        143.3010  141.2186  169.8685 Cl      1  UNL1       -0.0791
@<TRIPOS>BOND
     1    15    16    1
     2    16    17   am
     3    17    18    2
     4    17    10    1
     5    10    11   ar
     6    11    12   ar
     7    12     1    1
     8     1     2   ar
     9     2     3   ar
    10     3     4   ar
    11     4     5   ar
    12     5     6   ar
    13     6    20    1
    14    20    21    1
    15    21    22   ar
    16    22    23   ar
    17    23    24   ar
    18    24    25   ar
    19    25    26   ar
    20    26    27    1
    21     6     7   ar
    22     7     8   ar
    23     8     9   ar
    24    12    13   ar
    25    13    14   ar
    26    14    10   ar
    27     9     1   ar
    28     9     4   ar
    29    26    21   ar
    30    16    19    1
@<TRIPOS>MOLECULE
*****
 27 30 0 0 0
SMALL
GASTEIGER

@<TRIPOS>ATOM
      1 N         139.8382  144.0830  162.8292 N.ar    1  UNL1       -0.2291
      2 N         138.8768  144.8627  163.6764 N.ar    1  UNL1       -0.1635
      3 C         139.1409  144.5194  165.1125 C.ar    1  UNL1        0.1221
      4 C         140.2654  143.5276  165.1529 C.ar    1  UNL1        0.0416
      5 C         140.9527  142.8352  166.2923 C.ar    1  UNL1        0.0406
      6 C         142.0709  141.8731  166.0205 C.ar    1  UNL1        0.1455
      7 C         142.5019  141.6034  164.6093 C.ar    1  UNL1        0.0390
      8 C         141.8147  142.2958  163.4699 C.ar    1  UNL1        0.0223
      9 C         140.6964  143.2578  163.7417 C.ar    1  UNL1        0.0845
     10 C         140.4313  144.8323  159.0673 C.ar    1  UNL1        0.0843
     11 C         140.5766  145.1980  160.5148 C.ar    1  UNL1        0.0307
     12 C         139.9260  144.1216  161.3323 C.ar    1  UNL1        0.0899
     13 C         139.3787  143.0909  160.3901 C.ar    1  UNL1        0.0547
     14 S         139.6910  143.5300  158.9902 S.2     1  UNL1       -0.0803
     15 C         140.5481  146.6891  155.5617 C.3     1  UNL1        0.1110
     16 N         140.0419  145.8924  156.7274 N.am    1  UNL1       -0.2987
     17 C         140.9376  145.6291  157.9015 C.2     1  UNL1        0.2520
     18 O         142.3395  146.1626  157.9099 O.2     1  UNL1       -0.2696
     19 H         139.1218  145.5422  156.7220 H       1  UNL1        0.1498
     20 O         142.7582  141.1807  167.1600 O.3     1  UNL1       -0.4526
     21 C         142.0539  141.0202  168.4746 C.ar    1  UNL1        0.1557
     22 C         140.7736  140.2421  168.5494 C.ar    1  UNL1        0.0384
     23 C         140.0693  140.0816  169.8640 C.ar    1  UNL1        0.0032
     24 C         140.6453  140.6991  171.1038 C.ar    1  UNL1        0.0011
     25 C         141.9255  141.4771  171.0289 C.ar    1  UNL1        0.0145
     26 C         142.6298  141.6377  169.7143 C.ar    1  UNL1        0.0921
     27 CL        143.9101  142.4157  169.6394 Cl      1  UNL1       -0.0791
@<TRIPOS>BOND
     1    15    16    1
     2    16    17   am
     3    17    18    2
     4    17    10    1
     5    10    11   ar
     6    11    12   ar
     7    12     1    1
     8     1     2   ar
     9     2     3   ar
    10     3     4   ar
    11     4     5   ar
    12     5     6   ar
    13     6    20    1
    14    20    21    1
    15    21    22   ar
    16    22    23   ar
    17    23    24   ar
    18    24    25   ar
    19    25    26   ar
    20    26    27    1
    21     6     7   ar
    22     7     8   ar
    23     8     9   ar
    24    12    13   ar
    25    13    14   ar
    26    14    10   ar
    27     9     1   ar
    28     9     4   ar
    29    26    21   ar
    30    16    19    1
@<TRIPOS>MOLECULE
*****
 27 30 0 0 0
SMALL
GASTEIGER

@<TRIPOS>ATOM
      1 N         140.3899  145.2634  160.1264 N.ar    1  UNL1       -0.2291
      2 N         139.5156  146.0928  161.0196 N.ar    1  UNL1       -0.1635
      3 C         140.0254  145.9562  162.4237 C.ar    1  UNL1        0.1221
      4 C         141.2147  145.0425  162.3983 C.ar    1  UNL1        0.0416
      5 C         142.1217  144.5450  163.4845 C.ar    1  UNL1        0.0406
      6 C         143.2539  143.6194  163.1509 C.ar    1  UNL1        0.1455
      7 C         143.4791  143.1912  161.7310 C.ar    1  UNL1        0.0390
      8 C         142.5722  143.6887  160.6448 C.ar    1  UNL1        0.0223
      9 C         141.4400  144.6143  160.9784 C.ar    1  UNL1        0.0845
     10 C         140.1440  145.6067  156.2681 C.ar    1  UNL1        0.0843
     11 C         140.3690  146.2053  157.6249 C.ar    1  UNL1        0.0307
     12 C         140.2403  145.1101  158.6418 C.ar    1  UNL1        0.0899
     13 C         139.9358  143.8348  157.9134 C.ar    1  UNL1        0.0547
     14 S         139.8762  144.1416  156.4463 S.2     1  UNL1       -0.0803
     15 C         140.2038  148.5810  153.6412 C.3     1  UNL1        0.1110
     16 N         140.1674  147.8438  154.9470 N.am    1  UNL1       -0.2987
     17 C         140.1804  146.3439  154.9621 C.2     1  UNL1        0.2520
     18 O         140.2297  145.5813  153.6715 O.2     1  UNL1       -0.2696
     19 H         140.1350  148.3444  155.7941 H       1  UNL1        0.1498
     20 O         144.1609  143.1219  164.2371 O.3     1  UNL1       -0.4526
     21 C         144.0931  141.6882  164.6728 C.ar    1  UNL1        0.1557
     22 C         145.0059  140.6720  164.0528 C.ar    1  UNL1        0.0384
     23 C         144.9381  139.2382  164.4884 C.ar    1  UNL1        0.0032
     24 C         143.9575  138.8207  165.5440 C.ar    1  UNL1        0.0011
     25 C         143.0448  139.8368  166.1639 C.ar    1  UNL1        0.0145
     26 C         143.1126  141.2706  165.7283 C.ar    1  UNL1        0.0921
     27 CL        142.1998  142.2868  166.3483 Cl      1  UNL1       -0.0791
@<TRIPOS>BOND
     1    15    16    1
     2    16    17   am
     3    17    18    2
     4    17    10    1
     5    10    11   ar
     6    11    12   ar
     7    12     1    1
     8     1     2   ar
     9     2     3   ar
    10     3     4   ar
    11     4     5   ar
    12     5     6   ar
    13     6    20    1
    14    20    21    1
    15    21    22   ar
    16    22    23   ar
    17    23    24   ar
    18    24    25   ar
    19    25    26   ar
    20    26    27    1
    21     6     7   ar
    22     7     8   ar
    23     8     9   ar
    24    12    13   ar
    25    13    14   ar
    26    14    10   ar
    27     9     1   ar
    28     9     4   ar
    29    26    21   ar
    30    16    19    1
@<TRIPOS>MOLECULE
*****
 27 30 0 0 0
SMALL
GASTEIGER

@<TRIPOS>ATOM
      1 N         142.0502  138.9911  161.9155 N.ar    1  UNL1       -0.2291
      2 N         141.3659  137.6564  161.9318 N.ar    1  UNL1       -0.1635
      3 C         141.2217  137.2269  163.3617 C.ar    1  UNL1        0.1221
      4 C         141.8168  138.2962  164.2292 C.ar    1  UNL1        0.0416
      5 C         141.9586  138.4179  165.7175 C.ar    1  UNL1        0.0406
      6 C         142.6125  139.6299  166.3119 C.ar    1  UNL1        0.1455
      7 C         143.1245  140.7202  165.4181 C.ar    1  UNL1        0.0390
      8 C         142.9827  140.5985  163.9298 C.ar    1  UNL1        0.0223
      9 C         142.3289  139.3865  163.3354 C.ar    1  UNL1        0.0845
     10 C         143.5522  140.6159  158.7266 C.ar    1  UNL1        0.0843
     11 C         143.6109  139.6065  159.8346 C.ar    1  UNL1        0.0307
     12 C         142.3952  139.7901  160.6938 C.ar    1  UNL1        0.0899
     13 C         141.5852  140.9131  160.1170 C.ar    1  UNL1        0.0547
     14 S         142.3002  141.4235  158.9011 S.2     1  UNL1       -0.0803
     15 C         146.3485  142.2439  156.4286 C.3     1  UNL1        0.1110
     16 N         145.3334  142.0721  157.5195 N.am    1  UNL1       -0.2987
     17 C         144.5673  140.7877  157.6356 C.2     1  UNL1        0.2520
     18 O         144.8162  139.6752  156.6609 O.2     1  UNL1       -0.2696
     19 H         145.1700  142.8023  158.1593 H       1  UNL1        0.1498
     20 O         142.7544  139.7516  167.8003 O.3     1  UNL1       -0.4526
     21 C         141.7823  140.5860  168.5806 C.ar    1  UNL1        0.1557
     22 C         140.4214  140.0450  168.9055 C.ar    1  UNL1        0.0384
     23 C         139.4493  140.8794  169.6857 C.ar    1  UNL1        0.0032
     24 C         139.8381  142.2548  170.1411 C.ar    1  UNL1        0.0011
     25 C         141.1989  142.7957  169.8162 C.ar    1  UNL1        0.0145
     26 C         142.1710  141.9613  169.0359 C.ar    1  UNL1        0.0921
     27 CL        143.5318  142.5023  168.7110 Cl      1  UNL1       -0.0791
@<TRIPOS>BOND
     1    15    16    1
     2    16    17   am
     3    17    18    2
     4    17    10    1
     5    10    11   ar
     6    11    12   ar
     7    12     1    1
     8     1     2   ar
     9     2     3   ar
    10     3     4   ar
    11     4     5   ar
    12     5     6   ar
    13     6    20    1
    14    20    21    1
    15    21    22   ar
    16    22    23   ar
    17    23    24   ar
    18    24    25   ar
    19    25    26   ar
    20    26    27    1
    21     6     7   ar
    22     7     8   ar
    23     8     9   ar
    24    12    13   ar
    25    13    14   ar
    26    14    10   ar
    27     9     1   ar
    28     9     4   ar
    29    26    21   ar
    30    16    19    1
@<TRIPOS>MOLECULE
*****
 27 30 0 0 0
SMALL
GASTEIGER

@<TRIPOS>ATOM
      1 N         138.9629  139.4952  162.1436 N.ar    1  UNL1       -0.2291
      2 N         139.0299  137.9981  162.0795 N.ar    1  UNL1       -0.1635
      3 C         139.2062  137.4819  163.4768 C.ar    1  UNL1        0.1221
      4 C         139.2483  138.6600  164.4044 C.ar    1  UNL1        0.0416
      5 C         139.4040  138.7604  165.8929 C.ar    1  UNL1        0.0406
      6 C         139.4094  140.1051  166.5573 C.ar    1  UNL1        0.1455
      7 C         139.2590  141.3495  165.7333 C.ar    1  UNL1        0.0390
      8 C         139.1033  141.2491  164.2448 C.ar    1  UNL1        0.0223
      9 C         139.0979  139.9043  163.5804 C.ar    1  UNL1        0.0845
     10 C         138.1703  141.3035  158.8018 C.ar    1  UNL1        0.0843
     11 C         138.1134  140.0884  159.6795 C.ar    1  UNL1        0.0307
     12 C         138.7912  140.4208  160.9758 C.ar    1  UNL1        0.0899
     13 C         139.2669  141.8412  160.8991 C.ar    1  UNL1        0.0547
     14 S         138.8833  142.3869  159.5555 S.2     1  UNL1       -0.0803
     15 C         136.5212  142.8412  155.5359 C.3     1  UNL1        0.1110
     16 N         137.0792  142.7291  156.9237 N.am    1  UNL1       -0.2987
     17 C         137.6123  141.4155  157.4139 C.2     1  UNL1        0.2520
     18 O         137.5874  140.2140  156.5163 O.2     1  UNL1       -0.2696
     19 H         137.0956  143.5177  157.5128 H       1  UNL1        0.1498
     20 O         139.5652  140.2056  168.0459 O.3     1  UNL1       -0.4526
     21 C         140.6150  141.1030  168.6312 C.ar    1  UNL1        0.1557
     22 C         140.2236  142.4155  169.2430 C.ar    1  UNL1        0.0384
     23 C         141.2734  143.3129  169.8284 C.ar    1  UNL1        0.0032
     24 C         142.7146  142.8978  169.8019 C.ar    1  UNL1        0.0011
     25 C         143.1060  141.5853  169.1901 C.ar    1  UNL1        0.0145
     26 C         142.0562  140.6880  168.6047 C.ar    1  UNL1        0.0921
     27 CL        142.4476  139.3755  167.9929 Cl      1  UNL1       -0.0791
@<TRIPOS>BOND
     1    15    16    1
     2    16    17   am
     3    17    18    2
     4    17    10    1
     5    10    11   ar
     6    11    12   ar
     7    12     1    1
     8     1     2   ar
     9     2     3   ar
    10     3     4   ar
    11     4     5   ar
    12     5     6   ar
    13     6    20    1
    14    20    21    1
    15    21    22   ar
    16    22    23   ar
    17    23    24   ar
    18    24    25   ar
    19    25    26   ar
    20    26    27    1
    21     6     7   ar
    22     7     8   ar
    23     8     9   ar
    24    12    13   ar
    25    13    14   ar
    26    14    10   ar
    27     9     1   ar
    28     9     4   ar
    29    26    21   ar
    30    16    19    1
@<TRIPOS>MOLECULE
*****
 27 30 0 0 0
SMALL
GASTEIGER

@<TRIPOS>ATOM
      1 N         141.6530  138.2207  162.4670 N.ar    1  UNL1       -0.2291
      2 N         141.0073  136.9872  163.0251 N.ar    1  UNL1       -0.1635
      3 C         141.0656  137.0703  164.5217 C.ar    1  UNL1        0.1221
      4 C         141.7473  138.3551  164.8884 C.ar    1  UNL1        0.0416
      5 C         142.0844  138.9694  166.2147 C.ar    1  UNL1        0.0406
      6 C         142.7845  140.2948  166.2710 C.ar    1  UNL1        0.1455
      7 C         143.1476  141.0058  165.0010 C.ar    1  UNL1        0.0390
      8 C         142.8105  140.3914  163.6748 C.ar    1  UNL1        0.0223
      9 C         142.1104  139.0661  163.6185 C.ar    1  UNL1        0.0845
     10 C         142.5032  138.4601  158.6874 C.ar    1  UNL1        0.0843
     11 C         142.6247  137.7762  160.0168 C.ar    1  UNL1        0.0307
     12 C         141.8132  138.5508  161.0125 C.ar    1  UNL1        0.0899
     13 C         141.1902  139.7134  160.2985 C.ar    1  UNL1        0.0547
     14 S         141.6165  139.6575  158.8614 S.2     1  UNL1       -0.0803
     15 C         143.6571  136.1702  155.6583 C.3     1  UNL1        0.1110
     16 N         143.0063  136.6070  156.9373 N.am    1  UNL1       -0.2987
     17 C         143.1540  138.0234  157.4084 C.2     1  UNL1        0.2520
     18 O         143.9525  139.0031  156.6005 O.2     1  UNL1       -0.2696
     19 H         142.4823  135.9640  157.4675 H       1  UNL1        0.1498
     20 O         143.1217  140.9092  167.5972 O.3     1  UNL1       -0.4526
     21 C         142.0246  141.3612  168.5149 C.ar    1  UNL1        0.1557
     22 C         141.3747  142.6969  168.3060 C.ar    1  UNL1        0.0384
     23 C         140.2777  143.1489  169.2237 C.ar    1  UNL1        0.0032
     24 C         139.8305  142.2652  170.3503 C.ar    1  UNL1        0.0011
     25 C         140.4805  140.9296  170.5592 C.ar    1  UNL1        0.0145
     26 C         141.5775  140.4776  169.6415 C.ar    1  UNL1        0.0921
     27 CL        142.2274  139.1419  169.8505 Cl      1  UNL1       -0.0791
@<TRIPOS>BOND
     1    15    16    1
     2    16    17   am
     3    17    18    2
     4    17    10    1
     5    10    11   ar
     6    11    12   ar
     7    12     1    1
     8     1     2   ar
     9     2     3   ar
    10     3     4   ar
    11     4     5   ar
    12     5     6   ar
    13     6    20    1
    14    20    21    1
    15    21    22   ar
    16    22    23   ar
    17    23    24   ar
    18    24    25   ar
    19    25    26   ar
    20    26    27    1
    21     6     7   ar
    22     7     8   ar
    23     8     9   ar
    24    12    13   ar
    25    13    14   ar
    26    14    10   ar
    27     9     1   ar
    28     9     4   ar
    29    26    21   ar
    30    16    19    1
@<TRIPOS>MOLECULE
*****
 27 30 0 0 0
SMALL
GASTEIGER

@<TRIPOS>ATOM
      1 N         143.7541  142.1585  159.8243 N.ar    1  UNL1       -0.2291
      2 N         143.1702  143.4933  160.1815 N.ar    1  UNL1       -0.1635
      3 C         142.6230  143.4018  161.5751 C.ar    1  UNL1        0.1221
      4 C         142.8686  142.0105  162.0792 C.ar    1  UNL1        0.0416
      5 C         142.5461  141.3440  163.3837 C.ar    1  UNL1        0.0406
      6 C         142.9226  139.9092  163.6061 C.ar    1  UNL1        0.1455
      7 C         143.6216  139.1409  162.5240 C.ar    1  UNL1        0.0390
      8 C         143.9442  139.8073  161.2195 C.ar    1  UNL1        0.0223
      9 C         143.5677  141.2421  160.9971 C.ar    1  UNL1        0.0845
     10 C         145.9177  141.8047  156.6213 C.ar    1  UNL1        0.0843
     11 C         145.6036  142.4829  157.9219 C.ar    1  UNL1        0.0307
     12 C         144.4093  141.8027  158.5227 C.ar    1  UNL1        0.0899
     13 C         143.9853  140.7042  157.5935 C.ar    1  UNL1        0.0547
     14 S         144.9175  140.7054  156.4183 S.2     1  UNL1       -0.0803
     15 C         149.4743  141.8177  154.8603 C.3     1  UNL1        0.1110
     16 N         148.3562  141.4595  155.7940 N.am    1  UNL1       -0.2987
     17 C         147.0357  142.1630  155.6876 C.2     1  UNL1        0.2520
     18 O         146.8332  143.2248  154.6476 O.2     1  UNL1       -0.2696
     19 H         148.4891  140.7626  156.4766 H       1  UNL1        0.1498
     20 O         142.6000  139.2427  164.9106 O.3     1  UNL1       -0.4526
     21 C         141.1703  139.0151  165.3032 C.ar    1  UNL1        0.1557
     22 C         140.4898  139.9666  166.2422 C.ar    1  UNL1        0.0384
     23 C         139.0601  139.7390  166.6348 C.ar    1  UNL1        0.0032
     24 C         138.3109  138.5600  166.0884 C.ar    1  UNL1        0.0011
     25 C         138.9913  137.6085  165.1494 C.ar    1  UNL1        0.0145
     26 C         140.4211  137.8361  164.7568 C.ar    1  UNL1        0.0921
     27 CL        141.1015  136.8846  163.8178 Cl      1  UNL1       -0.0791
@<TRIPOS>BOND
     1    15    16    1
     2    16    17   am
     3    17    18    2
     4    17    10    1
     5    10    11   ar
     6    11    12   ar
     7    12     1    1
     8     1     2   ar
     9     2     3   ar
    10     3     4   ar
    11     4     5   ar
    12     5     6   ar
    13     6    20    1
    14    20    21    1
    15    21    22   ar
    16    22    23   ar
    17    23    24   ar
    18    24    25   ar
    19    25    26   ar
    20    26    27    1
    21     6     7   ar
    22     7     8   ar
    23     8     9   ar
    24    12    13   ar
    25    13    14   ar
    26    14    10   ar
    27     9     1   ar
    28     9     4   ar
    29    26    21   ar
    30    16    19    1
@<TRIPOS>MOLECULE
*****
 27 30 0 0 0
SMALL
GASTEIGER

@<TRIPOS>ATOM
      1 N         139.1360  143.5328  161.8634 N.ar    1  UNL1       -0.2291
      2 N         138.5437  144.7451  162.5188 N.ar    1  UNL1       -0.1635
      3 C         138.8682  144.6859  163.9821 C.ar    1  UNL1        0.1221
      4 C         139.6611  143.4372  164.2310 C.ar    1  UNL1        0.0416
      5 C         140.2538  142.8570  165.4808 C.ar    1  UNL1        0.0406
      6 C         141.0120  141.5641  165.4211 C.ar    1  UNL1        0.1455
      7 C         141.1775  140.8514  164.1117 C.ar    1  UNL1        0.0390
      8 C         140.5848  141.4316  162.8619 C.ar    1  UNL1        0.0223
      9 C         139.8266  142.7245  162.9215 C.ar    1  UNL1        0.0845
     10 C         138.3783  142.1671  158.3101 C.ar    1  UNL1        0.0843
     11 C         138.1208  142.1891  159.7876 C.ar    1  UNL1        0.0307
     12 C         139.0524  143.1892  160.4057 C.ar    1  UNL1        0.0899
     13 C         139.8856  143.7852  159.3101 C.ar    1  UNL1        0.0547
     14 S         139.4691  143.1536  158.0149 S.2     1  UNL1       -0.0803
     15 C         135.7478  140.9751  155.5880 C.3     1  UNL1        0.1110
     16 N         136.4566  141.8329  156.5938 N.am    1  UNL1       -0.2987
     17 C         137.6695  141.3092  157.3042 C.2     1  UNL1        0.2520
     18 O         138.1735  139.9277  157.0088 O.2     1  UNL1       -0.2696
     19 H         136.1258  142.7397  156.7876 H       1  UNL1        0.1498
     20 O         141.6047  140.9838  166.6710 O.3     1  UNL1       -0.4526
     21 C         141.1481  141.4714  168.0140 C.ar    1  UNL1        0.1557
     22 C         141.9001  142.5673  168.7095 C.ar    1  UNL1        0.0384
     23 C         141.4435  143.0549  170.0525 C.ar    1  UNL1        0.0032
     24 C         140.2348  142.4466  170.7001 C.ar    1  UNL1        0.0011
     25 C         139.4829  141.3508  170.0046 C.ar    1  UNL1        0.0145
     26 C         139.9395  140.8632  168.6616 C.ar    1  UNL1        0.0921
     27 CL        139.1875  139.7673  167.9661 Cl      1  UNL1       -0.0791
@<TRIPOS>BOND
     1    15    16    1
     2    16    17   am
     3    17    18    2
     4    17    10    1
     5    10    11   ar
     6    11    12   ar
     7    12     1    1
     8     1     2   ar
     9     2     3   ar
    10     3     4   ar
    11     4     5   ar
    12     5     6   ar
    13     6    20    1
    14    20    21    1
    15    21    22   ar
    16    22    23   ar
    17    23    24   ar
    18    24    25   ar
    19    25    26   ar
    20    26    27    1
    21     6     7   ar
    22     7     8   ar
    23     8     9   ar
    24    12    13   ar
    25    13    14   ar
    26    14    10   ar
    27     9     1   ar
    28     9     4   ar
    29    26    21   ar
    30    16    19    1
@<TRIPOS>MOLECULE
*****
 27 30 0 0 0
SMALL
GASTEIGER

@<TRIPOS>ATOM
      1 N         142.3129  144.2013  162.0723 N.ar    1  UNL1       -0.2291
      2 N         143.6623  144.5529  162.6252 N.ar    1  UNL1       -0.1635
      3 C         143.7067  144.1080  164.0570 C.ar    1  UNL1        0.1221
      4 C         142.3849  143.4815  164.3890 C.ar    1  UNL1        0.0416
      5 C         141.8544  142.8660  165.6498 C.ar    1  UNL1        0.0406
      6 C         140.4624  142.3081  165.6840 C.ar    1  UNL1        0.1455
      7 C         139.6010  142.3657  164.4574 C.ar    1  UNL1        0.0390
      8 C         140.1315  142.9812  163.1966 C.ar    1  UNL1        0.0223
      9 C         141.5235  143.5391  163.1624 C.ar    1  UNL1        0.0845
     10 C         141.6483  144.4316  158.2552 C.ar    1  UNL1        0.0843
     11 C         142.4378  143.9083  159.4183 C.ar    1  UNL1        0.0307
     12 C         141.8366  144.4654  160.6747 C.ar    1  UNL1        0.0899
     13 C         140.6757  145.3329  160.2879 C.ar    1  UNL1        0.0547
     14 S         140.5592  145.3121  158.7926 S.2     1  UNL1       -0.0803
     15 C         142.9447  144.7851  154.5209 C.3     1  UNL1        0.1110
     16 N         142.6898  145.0889  155.9675 N.am    1  UNL1       -0.2987
     17 C         141.9031  144.1277  156.8085 C.2     1  UNL1        0.2520
     18 O         141.3713  142.8627  156.2028 O.2     1  UNL1       -0.2696
     19 H         143.0389  145.9192  156.3650 H       1  UNL1        0.1498
     20 O         139.9318  141.6926  166.9448 O.3     1  UNL1       -0.4526
     21 C         140.8778  141.2765  168.0321 C.ar    1  UNL1        0.1557
     22 C         141.5613  139.9431  167.9618 C.ar    1  UNL1        0.0384
     23 C         142.5073  139.5271  169.0491 C.ar    1  UNL1        0.0032
     24 C         142.7697  140.4445  170.2065 C.ar    1  UNL1        0.0011
     25 C         142.0862  141.7778  170.2767 C.ar    1  UNL1        0.0145
     26 C         141.1402  142.1938  169.1895 C.ar    1  UNL1        0.0921
     27 CL        140.4566  143.5272  169.2597 Cl      1  UNL1       -0.0791
@<TRIPOS>BOND
     1    15    16    1
     2    16    17   am
     3    17    18    2
     4    17    10    1
     5    10    11   ar
     6    11    12   ar
     7    12     1    1
     8     1     2   ar
     9     2     3   ar
    10     3     4   ar
    11     4     5   ar
    12     5     6   ar
    13     6    20    1
    14    20    21    1
    15    21    22   ar
    16    22    23   ar
    17    23    24   ar
    18    24    25   ar
    19    25    26   ar
    20    26    27    1
    21     6     7   ar
    22     7     8   ar
    23     8     9   ar
    24    12    13   ar
    25    13    14   ar
    26    14    10   ar
    27     9     1   ar
    28     9     4   ar
    29    26    21   ar
    30    16    19    1
