@<TRIPOS>MOLECULE
*****
 34 38 0 0 0
SMALL
GASTEIGER

@<TRIPOS>ATOM
      1 N         138.5073  141.6193  159.6271 N.3     1  UNL1       -0.2673
      2 C         139.0973  140.2475  159.4855 C.3     1  UNL1        0.1035
      3 C         139.1752  139.3381  160.6758 C.3     1  UNL1        0.1470
      4 C         139.2532  138.4286  161.8661 C.3     1  UNL1        0.1037
      5 N         138.7410  138.8909  163.1980 N.3     1  UNL1       -0.2646
      6 C         138.1509  140.2627  163.3396 C.3     1  UNL1        0.1037
      7 C         138.0730  141.1721  162.1493 C.3     1  UNL1        0.1470
      8 C         137.9951  142.0816  160.9590 C.3     1  UNL1        0.1035
      9 O         138.6631  139.8004  162.0077 O.3     1  UNL1       -0.3530
     10 C         138.4293  142.5288  158.4368 C.3     1  UNL1        0.0913
     11 C         139.5462  143.4886  158.1520 C.3     1  UNL1        0.1087
     12 N         139.7517  144.6837  159.0350 N.3     1  UNL1       -0.1780
     13 H         140.1146  145.4295  158.4414 H       1  UNL1        0.1488
     14 S         140.6648  144.5915  160.2214 S.O2    1  UNL1        0.0603
     15 O         139.7450  145.4855  160.9989 O.2     1  UNL1       -0.1530
     16 O         141.5847  143.6974  159.4439 O.2     1  UNL1       -0.1530
     17 C         143.4043  144.3148  163.7807 C.ar    1  UNL1        0.0685
     18 C         143.7373  143.5755  162.5187 C.ar    1  UNL1        0.0116
     19 C         142.8242  143.6677  161.3323 C.ar    1  UNL1        0.0206
     20 C         141.5780  144.4992  161.4078 C.ar    1  UNL1        0.1220
     21 C         141.2450  145.2385  162.6699 C.ar    1  UNL1        0.0206
     22 C         142.1582  145.1463  163.8562 C.ar    1  UNL1        0.0116
     23 N         145.2307  144.1303  166.1536 N.1     1  UNL1       -0.1908
     24 C         144.3175  144.2225  164.9671 C.1     1  UNL1        0.1004
     25 C         138.8189  137.9814  164.3883 C.3     1  UNL1        0.1025
     26 C         138.7848  138.5550  165.7739 C.ar    1  UNL1        0.0344
     27 C         137.7354  138.2897  166.8123 C.ar    1  UNL1        0.1766
     28 O         138.0962  139.0653  168.0446 O.2     1  UNL1       -0.4507
     29 C         139.3686  139.8099  167.7677 C.ar    1  UNL1        0.1452
     30 C         140.1946  140.7343  168.6121 C.ar    1  UNL1        0.0375
     31 C         141.4462  141.3433  168.0532 C.ar    1  UNL1        0.0031
     32 C         141.8719  141.0280  166.6497 C.ar    1  UNL1        0.0002
     33 C         141.0458  140.1035  165.8054 C.ar    1  UNL1        0.0029
     34 C         139.7942  139.4945  166.3643 C.ar    1  UNL1        0.0349
@<TRIPOS>BOND
     1    23    24    3
     2    24    17    1
     3    17    18   ar
     4    18    19   ar
     5    19    20   ar
     6    20    14    1
     7    14    15    2
     8    14    16    2
     9    14    12    1
    10    12    11    1
    11    11    10    1
    12    10     1    1
    13     1     2    1
    14     2     3    1
    15     3     4    1
    16     4     5    1
    17     5    25    1
    18    25    26    1
    19    26    27   ar
    20    27    28   ar
    21    28    29   ar
    22    29    30   ar
    23    30    31   ar
    24    31    32   ar
    25    32    33   ar
    26    33    34   ar
    27     5     6    1
    28     6     7    1
    29     7     8    1
    30     7     9    1
    31    20    21   ar
    32    21    22   ar
    33    22    17   ar
    34     8     1    1
    35     9     3    1
    36    34    26   ar
    37    34    29   ar
    38    12    13    1
@<TRIPOS>MOLECULE
*****
 34 38 0 0 0
SMALL
GASTEIGER

@<TRIPOS>ATOM
      1 N         144.3821  141.6139  160.2133 N.3     1  UNL1       -0.2673
      2 C         143.8163  140.2261  160.2733 C.3     1  UNL1        0.1035
      3 C         143.6404  139.5445  161.5979 C.3     1  UNL1        0.1470
      4 C         143.4645  138.8629  162.9225 C.3     1  UNL1        0.1037
      5 N         143.8544  139.5692  164.1870 N.3     1  UNL1       -0.2646
      6 C         144.4202  140.9572  164.1269 C.3     1  UNL1        0.1037
      7 C         144.5961  141.6387  162.8024 C.3     1  UNL1        0.1470
      8 C         144.7720  142.3203  161.4778 C.3     1  UNL1        0.1035
      9 O         144.0303  140.2509  162.8624 O.3     1  UNL1       -0.3530
     10 C         144.5580  142.2956  158.8887 C.3     1  UNL1        0.0913
     11 C         143.5124  143.2491  158.3911 C.3     1  UNL1        0.1087
     12 N         142.0597  142.9588  158.6266 N.3     1  UNL1       -0.1780
     13 H         141.5423  143.4188  157.8775 H       1  UNL1        0.1488
     14 S         141.4121  143.3695  159.9157 S.O2    1  UNL1        0.0603
     15 O         142.1159  144.6924  159.8477 O.2     1  UNL1       -0.1530
     16 O         140.7083  142.0467  159.9837 O.2     1  UNL1       -0.1530
     17 C         139.4694  144.6018  163.7831 C.ar    1  UNL1        0.0685
     18 C         138.6528  143.9463  162.7092 C.ar    1  UNL1        0.0116
     19 C         139.3004  143.5355  161.4200 C.ar    1  UNL1        0.0206
     20 C         140.7645  143.7803  161.2048 C.ar    1  UNL1        0.1220
     21 C         141.5811  144.4359  162.2788 C.ar    1  UNL1        0.0206
     22 C         140.9335  144.8466  163.5680 C.ar    1  UNL1        0.0116
     23 N         138.1742  145.4233  166.3615 N.1     1  UNL1       -0.1908
     24 C         138.8218  145.0126  165.0723 C.1     1  UNL1        0.1004
     25 C         143.6785  138.8877  165.5116 C.3     1  UNL1        0.1025
     26 C         142.5535  139.2900  166.4186 C.ar    1  UNL1        0.0344
     27 C         142.6937  139.9594  167.7536 C.ar    1  UNL1        0.1766
     28 O         141.3177  140.1767  168.3099 O.2     1  UNL1       -0.4507
     29 C         140.3271  139.6416  167.3187 C.ar    1  UNL1        0.1452
     30 C         138.8283  139.5825  167.3294 C.ar    1  UNL1        0.0375
     31 C         138.0934  138.9755  166.1713 C.ar    1  UNL1        0.0031
     32 C         138.8572  138.4275  165.0024 C.ar    1  UNL1        0.0002
     33 C         140.3560  138.4866  164.9916 C.ar    1  UNL1        0.0029
     34 C         141.0909  139.0936  166.1498 C.ar    1  UNL1        0.0349
@<TRIPOS>BOND
     1    23    24    3
     2    24    17    1
     3    17    18   ar
     4    18    19   ar
     5    19    20   ar
     6    20    14    1
     7    14    15    2
     8    14    16    2
     9    14    12    1
    10    12    11    1
    11    11    10    1
    12    10     1    1
    13     1     2    1
    14     2     3    1
    15     3     4    1
    16     4     5    1
    17     5    25    1
    18    25    26    1
    19    26    27   ar
    20    27    28   ar
    21    28    29   ar
    22    29    30   ar
    23    30    31   ar
    24    31    32   ar
    25    32    33   ar
    26    33    34   ar
    27     5     6    1
    28     6     7    1
    29     7     8    1
    30     7     9    1
    31    20    21   ar
    32    21    22   ar
    33    22    17   ar
    34     8     1    1
    35     9     3    1
    36    34    26   ar
    37    34    29   ar
    38    12    13    1
@<TRIPOS>MOLECULE
*****
 34 38 0 0 0
SMALL
GASTEIGER

@<TRIPOS>ATOM
      1 N         140.2799  139.1353  158.7360 N.3     1  UNL1       -0.2673
      2 C         139.5159  138.4432  159.8255 C.3     1  UNL1        0.1035
      3 C         138.8054  139.2494  160.8719 C.3     1  UNL1        0.1470
      4 C         138.0948  140.0557  161.9184 C.3     1  UNL1        0.1037
      5 N         138.1483  141.5541  161.8753 N.3     1  UNL1       -0.2646
      6 C         138.9124  142.2463  160.7857 C.3     1  UNL1        0.1037
      7 C         139.6229  141.4400  159.7393 C.3     1  UNL1        0.1470
      8 C         140.3334  140.6338  158.6929 C.3     1  UNL1        0.1035
      9 O         138.8589  140.7479  160.8288 O.3     1  UNL1       -0.3530
     10 C         140.9905  138.3291  157.6895 C.3     1  UNL1        0.0913
     11 C         142.3570  137.7768  157.9678 C.3     1  UNL1        0.1087
     12 N         143.3614  138.6020  158.7165 N.3     1  UNL1       -0.1780
     13 H         144.2833  138.2544  158.4529 H       1  UNL1        0.1488
     14 S         143.3277  138.6465  160.2154 S.O2    1  UNL1        0.0603
     15 O         142.9412  137.1976  160.2497 O.2     1  UNL1       -0.1530
     16 O         143.7141  140.0954  160.1811 O.2     1  UNL1       -0.1530
     17 C         143.2266  138.7800  164.7123 C.ar    1  UNL1        0.0685
     18 C         142.1692  138.0273  163.9604 C.ar    1  UNL1        0.0116
     19 C         142.2029  137.9828  162.4613 C.ar    1  UNL1        0.0206
     20 C         143.2940  138.6910  161.7143 C.ar    1  UNL1        0.1220
     21 C         144.3514  139.4437  162.4663 C.ar    1  UNL1        0.0206
     22 C         144.3177  139.4882  163.9653 C.ar    1  UNL1        0.0116
     23 N         143.1591  138.8689  167.7102 N.1     1  UNL1       -0.1908
     24 C         143.1929  138.8245  166.2112 C.1     1  UNL1        0.1004
     25 C         137.4378  142.3604  162.9218 C.3     1  UNL1        0.1025
     26 C         138.2163  142.9982  164.0341 C.ar    1  UNL1        0.0344
     27 C         138.4118  144.4708  164.2417 C.ar    1  UNL1        0.1766
     28 O         139.2523  144.6582  165.4700 O.2     1  UNL1       -0.4507
     29 C         139.5762  143.3012  166.0214 C.ar    1  UNL1        0.1452
     30 C         140.3714  142.8673  167.2169 C.ar    1  UNL1        0.0375
     31 C         140.5263  141.4075  167.5250 C.ar    1  UNL1        0.0031
     32 C         139.8860  140.3816  166.6375 C.ar    1  UNL1        0.0002
     33 C         139.0908  140.8155  165.4420 C.ar    1  UNL1        0.0029
     34 C         138.9359  142.2754  165.1339 C.ar    1  UNL1        0.0349
@<TRIPOS>BOND
     1    23    24    3
     2    24    17    1
     3    17    18   ar
     4    18    19   ar
     5    19    20   ar
     6    20    14    1
     7    14    15    2
     8    14    16    2
     9    14    12    1
    10    12    11    1
    11    11    10    1
    12    10     1    1
    13     1     2    1
    14     2     3    1
    15     3     4    1
    16     4     5    1
    17     5    25    1
    18    25    26    1
    19    26    27   ar
    20    27    28   ar
    21    28    29   ar
    22    29    30   ar
    23    30    31   ar
    24    31    32   ar
    25    32    33   ar
    26    33    34   ar
    27     5     6    1
    28     6     7    1
    29     7     8    1
    30     7     9    1
    31    20    21   ar
    32    21    22   ar
    33    22    17   ar
    34     8     1    1
    35     9     3    1
    36    34    26   ar
    37    34    29   ar
    38    12    13    1
@<TRIPOS>MOLECULE
*****
 34 38 0 0 0
SMALL
GASTEIGER

@<TRIPOS>ATOM
      1 N         138.3483  140.5769  160.9934 N.3     1  UNL1       -0.2673
      2 C         138.7839  139.1863  161.3490 C.3     1  UNL1        0.1035
      3 C         138.8418  138.7633  162.7869 C.3     1  UNL1        0.1470
      4 C         138.8998  138.3402  164.2249 C.3     1  UNL1        0.1037
      5 N         138.5221  139.3077  165.3072 N.3     1  UNL1       -0.2646
      6 C         138.0865  140.6983  164.9514 C.3     1  UNL1        0.1037
      7 C         138.0285  141.1214  163.5135 C.3     1  UNL1        0.1470
      8 C         137.9706  141.5444  162.0756 C.3     1  UNL1        0.1035
      9 O         138.4641  139.7308  163.8692 O.3     1  UNL1       -0.3530
     10 C         138.2903  141.0000  159.5554 C.3     1  UNL1        0.0913
     11 C         138.6885  142.3930  159.1669 C.3     1  UNL1        0.1087
     12 N         140.1374  142.7355  158.9840 N.3     1  UNL1       -0.1780
     13 H         140.5625  141.9576  158.4795 H       1  UNL1        0.1488
     14 S         141.0024  142.9998  160.1807 S.O2    1  UNL1        0.0603
     15 O         140.1524  144.1842  160.5335 O.2     1  UNL1       -0.1530
     16 O         141.8524  141.8153  159.8278 O.2     1  UNL1       -0.1530
     17 C         143.5974  143.7926  163.7705 C.ar    1  UNL1        0.0685
     18 C         142.1051  143.8886  163.8880 C.ar    1  UNL1        0.0116
     19 C         141.2401  143.6243  162.6913 C.ar    1  UNL1        0.0206
     20 C         141.8674  143.2640  161.3773 C.ar    1  UNL1        0.1220
     21 C         143.3597  143.1680  161.2599 C.ar    1  UNL1        0.0206
     22 C         144.2247  143.4323  162.4565 C.ar    1  UNL1        0.0116
     23 N         145.3274  144.3211  166.1638 N.1     1  UNL1       -0.1908
     24 C         144.4624  144.0568  164.9672 C.1     1  UNL1        0.1004
     25 C         138.5800  138.8846  166.7451 C.3     1  UNL1        0.1025
     26 C         139.2531  139.7621  167.7585 C.ar    1  UNL1        0.0344
     27 C         138.7310  140.0906  169.1258 C.ar    1  UNL1        0.1766
     28 O         139.7217  140.9967  169.7950 O.2     1  UNL1       -0.4507
     29 C         140.8560  141.2281  168.8412 C.ar    1  UNL1        0.1452
     30 C         142.1152  142.0351  168.9561 C.ar    1  UNL1        0.0375
     31 C         143.0848  142.0791  167.8125 C.ar    1  UNL1        0.0031
     32 C         142.7952  141.3161  166.5538 C.ar    1  UNL1        0.0002
     33 C         141.5360  140.5091  166.4389 C.ar    1  UNL1        0.0029
     34 C         140.5664  140.4652  167.5826 C.ar    1  UNL1        0.0349
@<TRIPOS>BOND
     1    23    24    3
     2    24    17    1
     3    17    18   ar
     4    18    19   ar
     5    19    20   ar
     6    20    14    1
     7    14    15    2
     8    14    16    2
     9    14    12    1
    10    12    11    1
    11    11    10    1
    12    10     1    1
    13     1     2    1
    14     2     3    1
    15     3     4    1
    16     4     5    1
    17     5    25    1
    18    25    26    1
    19    26    27   ar
    20    27    28   ar
    21    28    29   ar
    22    29    30   ar
    23    30    31   ar
    24    31    32   ar
    25    32    33   ar
    26    33    34   ar
    27     5     6    1
    28     6     7    1
    29     7     8    1
    30     7     9    1
    31    20    21   ar
    32    21    22   ar
    33    22    17   ar
    34     8     1    1
    35     9     3    1
    36    34    26   ar
    37    34    29   ar
    38    12    13    1
@<TRIPOS>MOLECULE
*****
 34 38 0 0 0
SMALL
GASTEIGER

@<TRIPOS>ATOM
      1 N         143.1068  138.6059  165.4288 N.3     1  UNL1       -0.2673
      2 C         144.1378  139.1410  164.4799 C.3     1  UNL1        0.1035
      3 C         143.9146  139.0482  162.9995 C.3     1  UNL1        0.1470
      4 C         143.6914  138.9555  161.5191 C.3     1  UNL1        0.1037
      5 N         142.4370  138.3276  160.9877 N.3     1  UNL1       -0.2646
      6 C         141.4059  137.7925  161.9367 C.3     1  UNL1        0.1037
      7 C         141.6292  137.8853  163.4170 C.3     1  UNL1        0.1470
      8 C         141.8524  137.9781  164.8974 C.3     1  UNL1        0.1035
      9 O         142.6602  138.4204  162.4681 O.3     1  UNL1       -0.3530
     10 C         143.3300  138.6987  166.9093 C.3     1  UNL1        0.0913
     11 C         142.4063  139.5222  167.7569 C.3     1  UNL1        0.1087
     12 N         142.5980  141.0070  167.8504 N.3     1  UNL1       -0.1780
     13 H         142.1742  141.3038  168.7295 H       1  UNL1        0.1488
     14 S         142.0482  141.9031  166.7805 S.O2    1  UNL1        0.0603
     15 O         143.4393  142.1621  166.2827 O.2     1  UNL1       -0.1530
     16 O         140.6572  141.6440  167.2782 O.2     1  UNL1       -0.1530
     17 C         140.3989  144.5913  163.5706 C.ar    1  UNL1        0.0685
     18 C         141.8110  144.0937  163.4797 C.ar    1  UNL1        0.0116
     19 C         142.3608  143.1976  164.5497 C.ar    1  UNL1        0.0206
     20 C         141.4985  142.7991  165.7105 C.ar    1  UNL1        0.1220
     21 C         140.0863  143.2967  165.8013 C.ar    1  UNL1        0.0206
     22 C         139.5365  144.1928  164.7314 C.ar    1  UNL1        0.0116
     23 N         139.2993  146.3835  161.4307 N.1     1  UNL1       -0.1908
     24 C         139.8491  145.4873  162.5006 C.1     1  UNL1        0.1004
     25 C         142.2138  138.2349  159.5073 C.3     1  UNL1        0.1025
     26 C         140.9850  138.8392  158.8948 C.ar    1  UNL1        0.0344
     27 C         140.0761  138.1747  157.9037 C.ar    1  UNL1        0.1766
     28 O         138.9788  139.1389  157.5621 O.2     1  UNL1       -0.4507
     29 C         139.2098  140.3992  158.3422 C.ar    1  UNL1        0.1452
     30 C         138.4512  141.6915  158.4090 C.ar    1  UNL1        0.0375
     31 C         138.9325  142.7985  159.2993 C.ar    1  UNL1        0.0031
     32 C         140.1725  142.6133  160.1229 C.ar    1  UNL1        0.0002
     33 C         140.9310  141.3210  160.0562 C.ar    1  UNL1        0.0029
     34 C         140.4497  140.2139  159.1658 C.ar    1  UNL1        0.0349
@<TRIPOS>BOND
     1    23    24    3
     2    24    17    1
     3    17    18   ar
     4    18    19   ar
     5    19    20   ar
     6    20    14    1
     7    14    15    2
     8    14    16    2
     9    14    12    1
    10    12    11    1
    11    11    10    1
    12    10     1    1
    13     1     2    1
    14     2     3    1
    15     3     4    1
    16     4     5    1
    17     5    25    1
    18    25    26    1
    19    26    27   ar
    20    27    28   ar
    21    28    29   ar
    22    29    30   ar
    23    30    31   ar
    24    31    32   ar
    25    32    33   ar
    26    33    34   ar
    27     5     6    1
    28     6     7    1
    29     7     8    1
    30     7     9    1
    31    20    21   ar
    32    21    22   ar
    33    22    17   ar
    34     8     1    1
    35     9     3    1
    36    34    26   ar
    37    34    29   ar
    38    12    13    1
@<TRIPOS>MOLECULE
*****
 34 38 0 0 0
SMALL
GASTEIGER

@<TRIPOS>ATOM
      1 N         141.8348  144.3664  160.5181 N.3     1  UNL1       -0.2673
      2 C         142.9840  143.4192  160.6972 C.3     1  UNL1        0.1035
      3 C         143.3847  142.9780  162.0736 C.3     1  UNL1        0.1470
      4 C         143.7855  142.5367  163.4501 C.3     1  UNL1        0.1037
      5 N         143.0370  143.0427  164.6476 N.3     1  UNL1       -0.2646
      6 C         141.8878  143.9899  164.4685 C.3     1  UNL1        0.1037
      7 C         141.4870  144.4311  163.0920 C.3     1  UNL1        0.1470
      8 C         141.0863  144.8724  161.7155 C.3     1  UNL1        0.1035
      9 O         142.6362  143.4840  163.2710 O.3     1  UNL1       -0.3530
     10 C         141.4340  144.8077  159.1416 C.3     1  UNL1        0.0913
     11 C         140.1288  144.3532  158.5587 C.3     1  UNL1        0.1087
     12 N         139.7452  142.9042  158.6170 N.3     1  UNL1       -0.1780
     13 H         138.9025  142.7997  158.0520 H       1  UNL1        0.1488
     14 S         139.4629  142.2558  159.9398 S.O2    1  UNL1        0.0603
     15 O         138.3869  143.2666  160.2056 O.2     1  UNL1       -0.1530
     16 O         140.5388  141.2451  159.6741 O.2     1  UNL1       -0.1530
     17 C         138.6157  140.3107  163.9083 C.ar    1  UNL1        0.0685
     18 C         140.0203  140.3663  163.3850 C.ar    1  UNL1        0.0116
     19 C         140.3028  141.0147  162.0621 C.ar    1  UNL1        0.0206
     20 C         139.1805  141.6074  161.2626 C.ar    1  UNL1        0.1220
     21 C         137.7758  141.5518  161.7860 C.ar    1  UNL1        0.0206
     22 C         137.4934  140.9034  163.1088 C.ar    1  UNL1        0.0116
     23 N         138.0509  139.0139  166.5539 N.1     1  UNL1       -0.1908
     24 C         138.3333  139.6623  165.2311 C.1     1  UNL1        0.1004
     25 C         143.4378  142.6015  166.0240 C.3     1  UNL1        0.1025
     26 C         142.6790  141.5048  166.7107 C.ar    1  UNL1        0.0344
     27 C         142.7789  140.0393  166.4065 C.ar    1  UNL1        0.1766
     28 O         141.8487  139.3098  167.3300 O.2     1  UNL1       -0.4507
     29 C         141.1739  140.3245  168.2048 C.ar    1  UNL1        0.1452
     30 C         140.1586  140.1884  169.3005 C.ar    1  UNL1        0.0375
     31 C         139.6564  141.4088  170.0134 C.ar    1  UNL1        0.0031
     32 C         140.1696  142.7654  169.6307 C.ar    1  UNL1        0.0002
     33 C         141.1849  142.9015  168.5350 C.ar    1  UNL1        0.0029
     34 C         141.6871  141.6810  167.8221 C.ar    1  UNL1        0.0349
@<TRIPOS>BOND
     1    23    24    3
     2    24    17    1
     3    17    18   ar
     4    18    19   ar
     5    19    20   ar
     6    20    14    1
     7    14    15    2
     8    14    16    2
     9    14    12    1
    10    12    11    1
    11    11    10    1
    12    10     1    1
    13     1     2    1
    14     2     3    1
    15     3     4    1
    16     4     5    1
    17     5    25    1
    18    25    26    1
    19    26    27   ar
    20    27    28   ar
    21    28    29   ar
    22    29    30   ar
    23    30    31   ar
    24    31    32   ar
    25    32    33   ar
    26    33    34   ar
    27     5     6    1
    28     6     7    1
    29     7     8    1
    30     7     9    1
    31    20    21   ar
    32    21    22   ar
    33    22    17   ar
    34     8     1    1
    35     9     3    1
    36    34    26   ar
    37    34    29   ar
    38    12    13    1
@<TRIPOS>MOLECULE
*****
 34 38 0 0 0
SMALL
GASTEIGER

@<TRIPOS>ATOM
      1 N         142.4188  141.3856  159.6632 N.3     1  UNL1       -0.2673
      2 C         140.9585  141.3874  160.0060 C.3     1  UNL1        0.1035
      3 C         140.4983  141.9343  161.3247 C.3     1  UNL1        0.1470
      4 C         140.0381  142.4812  162.6435 C.3     1  UNL1        0.1037
      5 N         141.0382  143.0264  163.6195 N.3     1  UNL1       -0.2646
      6 C         142.4986  143.0246  163.2767 C.3     1  UNL1        0.1037
      7 C         142.9587  142.4777  161.9579 C.3     1  UNL1        0.1470
      8 C         143.4189  141.9308  160.6392 C.3     1  UNL1        0.1035
      9 O         141.4984  142.4794  162.3007 O.3     1  UNL1       -0.3530
     10 C         142.8790  140.8387  158.3444 C.3     1  UNL1        0.0913
     11 C         143.5492  139.4983  158.2811 C.3     1  UNL1        0.1087
     12 N         143.0258  138.3585  159.1040 N.3     1  UNL1       -0.1780
     13 H         142.0579  138.2096  158.8189 H       1  UNL1        0.1488
     14 S         143.0269  138.4517  160.6010 S.O2    1  UNL1        0.0603
     15 O         141.5614  138.1326  160.6220 O.2     1  UNL1       -0.1530
     16 O         144.4924  138.7708  160.5801 O.2     1  UNL1       -0.1530
     17 C         143.0302  138.7316  165.0923 C.ar    1  UNL1        0.0685
     18 C         141.8334  138.1794  164.3762 C.ar    1  UNL1        0.0116
     19 C         141.8323  138.0861  162.8790 C.ar    1  UNL1        0.0206
     20 C         143.0280  138.5450  162.0981 C.ar    1  UNL1        0.1220
     21 C         144.2247  139.0972  162.8143 C.ar    1  UNL1        0.0206
     22 C         144.2258  139.1905  164.3114 C.ar    1  UNL1        0.0116
     23 N         143.0323  138.9181  168.0865 N.1     1  UNL1       -0.1908
     24 C         143.0312  138.8248  166.5894 C.1     1  UNL1        0.1004
     25 C         140.5781  143.5733  164.9382 C.3     1  UNL1        0.1025
     26 C         140.4740  142.6686  166.1302 C.ar    1  UNL1        0.0344
     27 C         141.1714  142.8584  167.4446 C.ar    1  UNL1        0.1766
     28 O         140.7828  141.7224  168.3438 O.2     1  UNL1       -0.4507
     29 C         139.8452  140.8306  167.5851 C.ar    1  UNL1        0.1452
     30 C         139.1405  139.5615  167.9632 C.ar    1  UNL1        0.0375
     31 C         138.2451  138.8773  166.9734 C.ar    1  UNL1        0.0031
     32 C         138.0543  139.4621  165.6052 C.ar    1  UNL1        0.0002
     33 C         138.7589  140.7311  165.2271 C.ar    1  UNL1        0.0029
     34 C         139.6544  141.4153  166.2171 C.ar    1  UNL1        0.0349
@<TRIPOS>BOND
     1    23    24    3
     2    24    17    1
     3    17    18   ar
     4    18    19   ar
     5    19    20   ar
     6    20    14    1
     7    14    15    2
     8    14    16    2
     9    14    12    1
    10    12    11    1
    11    11    10    1
    12    10     1    1
    13     1     2    1
    14     2     3    1
    15     3     4    1
    16     4     5    1
    17     5    25    1
    18    25    26    1
    19    26    27   ar
    20    27    28   ar
    21    28    29   ar
    22    29    30   ar
    23    30    31   ar
    24    31    32   ar
    25    32    33   ar
    26    33    34   ar
    27     5     6    1
    28     6     7    1
    29     7     8    1
    30     7     9    1
    31    20    21   ar
    32    21    22   ar
    33    22    17   ar
    34     8     1    1
    35     9     3    1
    36    34    26   ar
    37    34    29   ar
    38    12    13    1
@<TRIPOS>MOLECULE
*****
 34 38 0 0 0
SMALL
GASTEIGER

@<TRIPOS>ATOM
      1 N         143.1943  139.9532  160.9020 N.3     1  UNL1       -0.2673
      2 C         144.3743  140.3822  161.7225 C.3     1  UNL1        0.1035
      3 C         144.4709  139.9806  163.1645 C.3     1  UNL1        0.1470
      4 C         144.5676  139.5789  164.6066 C.3     1  UNL1        0.1037
      5 N         143.4842  138.7482  165.2279 N.3     1  UNL1       -0.2646
      6 C         142.3041  138.3192  164.4073 C.3     1  UNL1        0.1037
      7 C         142.2075  138.7208  162.9653 C.3     1  UNL1        0.1470
      8 C         142.1109  139.1225  161.5234 C.3     1  UNL1        0.1035
      9 O         143.3875  139.1499  163.7859 O.3     1  UNL1       -0.3530
     10 C         143.0976  140.3548  159.4599 C.3     1  UNL1        0.0913
     11 C         143.6124  141.6925  159.0178 C.3     1  UNL1        0.1087
     12 N         142.6822  142.8670  158.9438 N.3     1  UNL1       -0.1780
     13 H         143.2421  143.6681  158.6521 H       1  UNL1        0.1488
     14 S         141.9157  143.2945  160.1602 S.O2    1  UNL1        0.0603
     15 O         143.1874  143.7777  160.7919 O.2     1  UNL1       -0.1530
     16 O         140.6439  142.8112  159.5285 O.2     1  UNL1       -0.1530
     17 C         139.6158  144.5768  163.8093 C.ar    1  UNL1        0.0685
     18 C         141.0628  144.9454  163.6669 C.ar    1  UNL1        0.0116
     19 C         141.8295  144.5180  162.4505 C.ar    1  UNL1        0.0206
     20 C         141.1491  143.7219  161.3765 C.ar    1  UNL1        0.1220
     21 C         139.7020  143.3533  161.5190 C.ar    1  UNL1        0.0206
     22 C         138.9354  143.7808  162.7354 C.ar    1  UNL1        0.0116
     23 N         138.0826  145.4318  166.2421 N.1     1  UNL1       -0.1908
     24 C         138.8493  145.0043  165.0257 C.1     1  UNL1        0.1004
     25 C         143.5808  138.3466  166.6699 C.3     1  UNL1        0.1025
     26 C         142.8263  139.1144  167.7145 C.ar    1  UNL1        0.0344
     27 C         142.6999  138.7429  169.1623 C.ar    1  UNL1        0.1766
     28 O         141.8612  139.7874  169.8374 O.2     1  UNL1       -0.4507
     29 C         141.4693  140.8045  168.8068 C.ar    1  UNL1        0.1452
     30 C         140.6464  142.0556  168.8934 C.ar    1  UNL1        0.0375
     31 C         140.4199  142.8907  167.6683 C.ar    1  UNL1        0.0031
     32 C         141.0163  142.4747  166.3562 C.ar    1  UNL1        0.0002
     33 C         141.8393  141.2237  166.2695 C.ar    1  UNL1        0.0029
     34 C         142.0658  140.3885  167.4948 C.ar    1  UNL1        0.0349
@<TRIPOS>BOND
     1    23    24    3
     2    24    17    1
     3    17    18   ar
     4    18    19   ar
     5    19    20   ar
     6    20    14    1
     7    14    15    2
     8    14    16    2
     9    14    12    1
    10    12    11    1
    11    11    10    1
    12    10     1    1
    13     1     2    1
    14     2     3    1
    15     3     4    1
    16     4     5    1
    17     5    25    1
    18    25    26    1
    19    26    27   ar
    20    27    28   ar
    21    28    29   ar
    22    29    30   ar
    23    30    31   ar
    24    31    32   ar
    25    32    33   ar
    26    33    34   ar
    27     5     6    1
    28     6     7    1
    29     7     8    1
    30     7     9    1
    31    20    21   ar
    32    21    22   ar
    33    22    17   ar
    34     8     1    1
    35     9     3    1
    36    34    26   ar
    37    34    29   ar
    38    12    13    1
@<TRIPOS>MOLECULE
*****
 34 38 0 0 0
SMALL
GASTEIGER

@<TRIPOS>ATOM
      1 N         141.8077  140.1942  160.6400 N.3     1  UNL1       -0.2673
      2 C         141.5040  141.5825  161.1198 C.3     1  UNL1        0.1035
      3 C         141.8537  141.9848  162.5219 C.3     1  UNL1        0.1470
      4 C         142.2034  142.3871  163.9240 C.3     1  UNL1        0.1037
      5 N         142.8569  141.4010  164.8463 N.3     1  UNL1       -0.2646
      6 C         143.1606  140.0126  164.3664 C.3     1  UNL1        0.1037
      7 C         142.8109  139.6104  162.9643 C.3     1  UNL1        0.1470
      8 C         142.4612  139.2081  161.5623 C.3     1  UNL1        0.1035
      9 O         142.5072  140.9987  163.4441 O.3     1  UNL1       -0.3530
     10 C         141.4580  139.7919  159.2379 C.3     1  UNL1        0.0913
     11 C         140.3753  138.7826  158.9952 C.3     1  UNL1        0.1087
     12 N         139.0190  138.9759  159.6062 N.3     1  UNL1       -0.1780
     13 H         138.6633  139.8661  159.2580 H       1  UNL1        0.1488
     14 S         138.8654  139.0019  161.0981 S.O2    1  UNL1        0.0603
     15 O         138.2604  140.3718  161.0118 O.2     1  UNL1       -0.1530
     16 O         139.4703  137.6321  161.1843 O.2     1  UNL1       -0.1530
     17 C         138.4045  139.0801  165.5737 C.ar    1  UNL1        0.0685
     18 C         138.1002  140.3074  164.7669 C.ar    1  UNL1        0.0116
     19 C         138.2539  140.2814  163.2750 C.ar    1  UNL1        0.0206
     20 C         138.7117  139.0280  162.5899 C.ar    1  UNL1        0.1220
     21 C         139.0160  137.8006  163.3968 C.ar    1  UNL1        0.0206
     22 C         138.8623  137.8267  164.8887 C.ar    1  UNL1        0.0116
     23 N         138.0971  139.1323  168.5575 N.1     1  UNL1       -0.1908
     24 C         138.2508  139.1062  167.0656 C.1     1  UNL1        0.1004
     25 C         143.2066  141.8032  166.2484 C.3     1  UNL1        0.1025
     26 C         142.5302  141.1381  167.4103 C.ar    1  UNL1        0.0344
     27 C         142.6005  139.6798  167.7546 C.ar    1  UNL1        0.1766
     28 O         141.7784  139.4549  168.9891 O.2     1  UNL1       -0.4507
     29 C         141.2000  140.7742  169.4075 C.ar    1  UNL1        0.1452
     30 C         140.3104  141.1627  170.5510 C.ar    1  UNL1        0.0375
     31 C         139.8853  142.5914  170.7187 C.ar    1  UNL1        0.0031
     32 C         140.3500  143.6317  169.7430 C.ar    1  UNL1        0.0002
     33 C         141.2396  143.2432  168.5995 C.ar    1  UNL1        0.0029
     34 C         141.6647  141.8144  168.4318 C.ar    1  UNL1        0.0349
@<TRIPOS>BOND
     1    23    24    3
     2    24    17    1
     3    17    18   ar
     4    18    19   ar
     5    19    20   ar
     6    20    14    1
     7    14    15    2
     8    14    16    2
     9    14    12    1
    10    12    11    1
    11    11    10    1
    12    10     1    1
    13     1     2    1
    14     2     3    1
    15     3     4    1
    16     4     5    1
    17     5    25    1
    18    25    26    1
    19    26    27   ar
    20    27    28   ar
    21    28    29   ar
    22    29    30   ar
    23    30    31   ar
    24    31    32   ar
    25    32    33   ar
    26    33    34   ar
    27     5     6    1
    28     6     7    1
    29     7     8    1
    30     7     9    1
    31    20    21   ar
    32    21    22   ar
    33    22    17   ar
    34     8     1    1
    35     9     3    1
    36    34    26   ar
    37    34    29   ar
    38    12    13    1
