@<TRIPOS>MOLECULE
*****
 22 24 0 0 0
SMALL
GASTEIGER

@<TRIPOS>ATOM
      1 C         140.3650  144.6524  170.1779 C.3     1  UNL1        0.0420
      2 C         140.3510  143.2598  169.6206 C.3     1  UNL1        0.1909
      3 O         140.3642  143.0460  168.1360 O.3     1  UNL1       -0.3501
      4 C         140.3503  141.6534  167.5786 C.3     1  UNL1        0.1141
      5 C         140.3363  140.2608  167.0213 C.3     1  UNL1        0.0463
      6 C         140.3495  140.0470  165.5368 C.3     1  UNL1        0.0746
      7 N         140.3767  141.2257  164.6094 N.3     1  UNL1       -0.2722
      8 C         140.3907  142.6182  165.1667 C.3     1  UNL1        0.0746
      9 C         140.3775  142.8321  166.6513 C.3     1  UNL1        0.0463
     10 C         140.3230  140.4747  168.5059 C.3     1  UNL1        0.1206
     11 N         140.3098  140.6886  169.9906 N.am    1  UNL1       -0.2734
     12 C         140.2826  139.5099  170.9179 C.3     1  UNL1        0.1150
     13 C         140.3238  142.0811  170.5479 C.2     1  UNL1        0.2529
     14 O         140.3105  142.2950  172.0325 O.2     1  UNL1       -0.2722
     15 C         140.3900  141.0118  163.1248 C.3     1  UNL1        0.0768
     16 C         141.5928  140.4051  162.4651 C.3     1  UNL1        0.0437
     17 C         142.9694  140.7578  162.9454 C.ar    1  UNL1       -0.0208
     18 C         143.5108  142.1387  162.7221 C.ar    1  UNL1       -0.0042
     19 C         144.8873  142.4913  163.2023 C.ar    1  UNL1       -0.0003
     20 C         145.7225  141.4630  163.9059 C.ar    1  UNL1       -0.0000
     21 C         145.1812  140.0821  164.1293 C.ar    1  UNL1       -0.0003
     22 C         143.8046  139.7295  163.6490 C.ar    1  UNL1       -0.0042
@<TRIPOS>BOND
     1     1     2    1
     2     2     3    1
     3     3     4    1
     4     4     5    1
     5     5     6    1
     6     6     7    1
     7     7    15    1
     8    15    16    1
     9    16    17    1
    10    17    18   ar
    11    18    19   ar
    12    19    20   ar
    13    20    21   ar
    14    21    22   ar
    15     7     8    1
    16     8     9    1
    17     4    10    1
    18    10    11    1
    19    11    12    1
    20    11    13   am
    21    13    14    2
    22    13     2    1
    23     9     4    1
    24    22    17   ar
@<TRIPOS>MOLECULE
*****
 22 24 0 0 0
SMALL
GASTEIGER

@<TRIPOS>ATOM
      1 C         138.1936  138.8782  166.8505 C.3     1  UNL1        0.0420
      2 C         139.3500  139.7634  167.2101 C.3     1  UNL1        0.1909
      3 O         140.3422  140.1650  166.1593 O.3     1  UNL1       -0.3501
      4 C         141.4986  141.0502  166.5189 C.3     1  UNL1        0.1141
      5 C         142.6549  141.9354  166.8785 C.3     1  UNL1        0.0463
      6 C         143.6471  142.3370  165.8277 C.3     1  UNL1        0.0746
      7 N         143.4830  141.8533  164.4173 N.3     1  UNL1       -0.2722
      8 C         142.3267  140.9681  164.0577 C.3     1  UNL1        0.0746
      9 C         141.3345  140.5666  165.1085 C.3     1  UNL1        0.0463
     10 C         141.6627  141.5339  167.9292 C.3     1  UNL1        0.1206
     11 N         140.6704  141.1322  168.9801 N.am    1  UNL1       -0.2734
     12 C         140.8345  141.6159  170.3904 C.3     1  UNL1        0.1150
     13 C         139.5141  140.2471  168.6205 C.2     1  UNL1        0.2529
     14 O         138.5218  139.8454  169.6713 O.2     1  UNL1       -0.2722
     15 C         144.4753  142.2549  163.3665 C.3     1  UNL1        0.0768
     16 C         144.3846  143.6090  162.7276 C.3     1  UNL1        0.0437
     17 C         143.0441  144.2431  162.5010 C.ar    1  UNL1       -0.0208
     18 C         142.3164  144.0173  161.2090 C.ar    1  UNL1       -0.0042
     19 C         140.9761  144.6514  160.9824 C.ar    1  UNL1       -0.0003
     20 C         140.3634  145.5112  162.0479 C.ar    1  UNL1       -0.0000
     21 C         141.0911  145.7370  163.3400 C.ar    1  UNL1       -0.0003
     22 C         142.4314  145.1029  163.5665 C.ar    1  UNL1       -0.0042
@<TRIPOS>BOND
     1     1     2    1
     2     2     3    1
     3     3     4    1
     4     4     5    1
     5     5     6    1
     6     6     7    1
     7     7    15    1
     8    15    16    1
     9    16    17    1
    10    17    18   ar
    11    18    19   ar
    12    19    20   ar
    13    20    21   ar
    14    21    22   ar
    15     7     8    1
    16     8     9    1
    17     4    10    1
    18    10    11    1
    19    11    12    1
    20    11    13   am
    21    13    14    2
    22    13     2    1
    23     9     4    1
    24    22    17   ar
@<TRIPOS>MOLECULE
*****
 22 24 0 0 0
SMALL
GASTEIGER

@<TRIPOS>ATOM
      1 C         138.6758  140.3671  170.1762 C.3     1  UNL1        0.0420
      2 C         139.8898  140.9975  169.5607 C.3     1  UNL1        0.1909
      3 O         140.1575  140.8346  168.0938 O.3     1  UNL1       -0.3501
      4 C         141.3715  141.4650  167.4784 C.3     1  UNL1        0.1141
      5 C         142.5855  142.0954  166.8630 C.3     1  UNL1        0.0463
      6 C         142.8532  141.9324  165.3961 C.3     1  UNL1        0.0746
      7 N         141.9069  141.1390  164.5446 N.3     1  UNL1       -0.2722
      8 C         140.6929  140.5086  165.1600 C.3     1  UNL1        0.0746
      9 C         140.4252  140.6716  166.6269 C.3     1  UNL1        0.0463
     10 C         142.3178  142.2584  168.3298 C.3     1  UNL1        0.1206
     11 N         142.0501  142.4214  169.7968 N.am    1  UNL1       -0.2734
     12 C         142.9964  143.2148  170.6482 C.3     1  UNL1        0.1150
     13 C         140.8361  141.7909  170.4122 C.2     1  UNL1        0.2529
     14 O         140.5684  141.9539  171.8791 O.2     1  UNL1       -0.2722
     15 C         142.1746  140.9761  163.0777 C.3     1  UNL1        0.0768
     16 C         141.7175  142.0275  162.1105 C.3     1  UNL1        0.0437
     17 C         140.4900  142.8369  162.4075 C.ar    1  UNL1       -0.0208
     18 C         140.6180  144.1824  163.0581 C.ar    1  UNL1       -0.0042
     19 C         139.3905  144.9917  163.3550 C.ar    1  UNL1       -0.0003
     20 C         138.0350  144.4556  163.0012 C.ar    1  UNL1       -0.0000
     21 C         137.9069  143.1102  162.3506 C.ar    1  UNL1       -0.0003
     22 C         139.1344  142.3009  162.0537 C.ar    1  UNL1       -0.0042
@<TRIPOS>BOND
     1     1     2    1
     2     2     3    1
     3     3     4    1
     4     4     5    1
     5     5     6    1
     6     6     7    1
     7     7    15    1
     8    15    16    1
     9    16    17    1
    10    17    18   ar
    11    18    19   ar
    12    19    20   ar
    13    20    21   ar
    14    21    22   ar
    15     7     8    1
    16     8     9    1
    17     4    10    1
    18    10    11    1
    19    11    12    1
    20    11    13   am
    21    13    14    2
    22    13     2    1
    23     9     4    1
    24    22    17   ar
@<TRIPOS>MOLECULE
*****
 22 24 0 0 0
SMALL
GASTEIGER

@<TRIPOS>ATOM
      1 C         145.5788  141.7322  163.4166 C.3     1  UNL1        0.0420
      2 C         144.1416  142.1390  163.5543 C.3     1  UNL1        0.1909
      3 O         143.2382  141.3953  164.4928 O.3     1  UNL1       -0.3501
      4 C         141.8010  141.8021  164.6306 C.3     1  UNL1        0.1141
      5 C         140.3638  142.2089  164.7682 C.3     1  UNL1        0.0463
      6 C         139.4605  141.4652  165.7068 C.3     1  UNL1        0.0746
      7 N         139.9943  140.3147  166.5076 N.3     1  UNL1       -0.2722
      8 C         141.4315  139.9079  166.3700 C.3     1  UNL1        0.0746
      9 C         142.3348  140.6516  165.4314 C.3     1  UNL1        0.0463
     10 C         141.2671  142.9526  163.8297 C.3     1  UNL1        0.1206
     11 N         142.1705  143.6963  162.8911 N.am    1  UNL1       -0.2734
     12 C         141.6367  144.8467  162.0903 C.3     1  UNL1        0.1150
     13 C         143.6077  143.2894  162.7534 C.2     1  UNL1        0.2529
     14 O         144.5111  144.0331  161.8149 O.2     1  UNL1       -0.2722
     15 C         139.0909  139.5710  167.4462 C.3     1  UNL1        0.0768
     16 C         138.9951  139.9888  168.8836 C.3     1  UNL1        0.0437
     17 C         140.0913  140.8048  169.5022 C.ar    1  UNL1       -0.0208
     18 C         140.0799  142.2989  169.3702 C.ar    1  UNL1       -0.0042
     19 C         141.1761  143.1148  169.9888 C.ar    1  UNL1       -0.0003
     20 C         142.2836  142.4366  170.7394 C.ar    1  UNL1       -0.0000
     21 C         142.2950  140.9424  170.8714 C.ar    1  UNL1       -0.0003
     22 C         141.1988  140.1266  170.2528 C.ar    1  UNL1       -0.0042
@<TRIPOS>BOND
     1     1     2    1
     2     2     3    1
     3     3     4    1
     4     4     5    1
     5     5     6    1
     6     6     7    1
     7     7    15    1
     8    15    16    1
     9    16    17    1
    10    17    18   ar
    11    18    19   ar
    12    19    20   ar
    13    20    21   ar
    14    21    22   ar
    15     7     8    1
    16     8     9    1
    17     4    10    1
    18    10    11    1
    19    11    12    1
    20    11    13   am
    21    13    14    2
    22    13     2    1
    23     9     4    1
    24    22    17   ar
@<TRIPOS>MOLECULE
*****
 22 24 0 0 0
SMALL
GASTEIGER

@<TRIPOS>ATOM
      1 C         140.5222  141.2819  170.2158 C.3     1  UNL1        0.0420
      2 C         140.4340  140.8637  168.7779 C.3     1  UNL1        0.1909
      3 O         141.4659  141.3330  167.7957 O.3     1  UNL1       -0.3501
      4 C         141.3777  140.9148  166.3578 C.3     1  UNL1        0.1141
      5 C         141.2894  140.4965  164.9201 C.3     1  UNL1        0.0463
      6 C         142.3213  140.9659  163.9378 C.3     1  UNL1        0.0746
      7 N         143.4414  141.8535  164.3933 N.3     1  UNL1       -0.2722
      8 C         143.5296  142.2718  165.8310 C.3     1  UNL1        0.0746
      9 C         142.4978  141.8024  166.8133 C.3     1  UNL1        0.0463
     10 C         140.2576  140.0271  165.9023 C.3     1  UNL1        0.1206
     11 N         139.2257  139.5577  166.8847 N.am    1  UNL1       -0.2734
     12 C         138.1056  138.6700  166.4292 C.3     1  UNL1        0.1150
     13 C         139.3139  139.9760  168.3225 C.2     1  UNL1        0.2529
     14 O         138.2821  139.5066  169.3048 O.2     1  UNL1       -0.2722
     15 C         144.4733  142.3229  163.4109 C.3     1  UNL1        0.0768
     16 C         144.3588  143.6868  162.7971 C.3     1  UNL1        0.0437
     17 C         143.0063  144.2816  162.5381 C.ar    1  UNL1       -0.0208
     18 C         142.3473  145.1304  163.5846 C.ar    1  UNL1       -0.0042
     19 C         140.9949  145.7251  163.3255 C.ar    1  UNL1       -0.0003
     20 C         140.3015  145.4712  162.0199 C.ar    1  UNL1       -0.0000
     21 C         140.9605  144.6224  160.9733 C.ar    1  UNL1       -0.0003
     22 C         142.3129  144.0277  161.2324 C.ar    1  UNL1       -0.0042
@<TRIPOS>BOND
     1     1     2    1
     2     2     3    1
     3     3     4    1
     4     4     5    1
     5     5     6    1
     6     6     7    1
     7     7    15    1
     8    15    16    1
     9    16    17    1
    10    17    18   ar
    11    18    19   ar
    12    19    20   ar
    13    20    21   ar
    14    21    22   ar
    15     7     8    1
    16     8     9    1
    17     4    10    1
    18    10    11    1
    19    11    12    1
    20    11    13   am
    21    13    14    2
    22    13     2    1
    23     9     4    1
    24    22    17   ar
@<TRIPOS>MOLECULE
*****
 22 24 0 0 0
SMALL
GASTEIGER

@<TRIPOS>ATOM
      1 C         139.6240  146.3224  161.6270 C.3     1  UNL1        0.0420
      2 C         140.6326  145.2120  161.6313 C.3     1  UNL1        0.1909
      3 O         140.9384  144.4814  162.9051 O.3     1  UNL1       -0.3501
      4 C         141.9469  143.3710  162.9094 C.3     1  UNL1        0.1141
      5 C         142.9554  142.2607  162.9136 C.3     1  UNL1        0.0463
      6 C         143.2613  141.5302  164.1874 C.3     1  UNL1        0.0746
      7 N         142.5586  141.9099  165.4570 N.3     1  UNL1       -0.2722
      8 C         141.5501  143.0203  165.4528 C.3     1  UNL1        0.0746
      9 C         141.2442  143.7508  164.1790 C.3     1  UNL1        0.0463
     10 C         142.6496  142.9913  161.6397 C.3     1  UNL1        0.1206
     11 N         142.3438  143.7219  160.3658 N.am    1  UNL1       -0.2734
     12 C         143.0465  143.3421  159.0962 C.3     1  UNL1        0.1150
     13 C         141.3353  144.8322  160.3616 C.2     1  UNL1        0.2529
     14 O         141.0294  145.5629  159.0877 O.2     1  UNL1       -0.2722
     15 C         142.8644  141.1793  166.7309 C.3     1  UNL1        0.0768
     16 C         142.4756  139.7384  166.8810 C.3     1  UNL1        0.0437
     17 C         141.1967  139.2397  166.2760 C.ar    1  UNL1       -0.0208
     18 C         141.2357  138.2459  165.1533 C.ar    1  UNL1       -0.0042
     19 C         139.9569  137.7472  164.5484 C.ar    1  UNL1       -0.0003
     20 C         138.6391  138.2425  165.0662 C.ar    1  UNL1       -0.0000
     21 C         138.6001  139.2363  166.1890 C.ar    1  UNL1       -0.0003
     22 C         139.8789  139.7349  166.7939 C.ar    1  UNL1       -0.0042
@<TRIPOS>BOND
     1     1     2    1
     2     2     3    1
     3     3     4    1
     4     4     5    1
     5     5     6    1
     6     6     7    1
     7     7    15    1
     8    15    16    1
     9    16    17    1
    10    17    18   ar
    11    18    19   ar
    12    19    20   ar
    13    20    21   ar
    14    21    22   ar
    15     7     8    1
    16     8     9    1
    17     4    10    1
    18    10    11    1
    19    11    12    1
    20    11    13   am
    21    13    14    2
    22    13     2    1
    23     9     4    1
    24    22    17   ar
@<TRIPOS>MOLECULE
*****
 22 24 0 0 0
SMALL
GASTEIGER

@<TRIPOS>ATOM
      1 C         142.9503  143.3274  159.0219 C.3     1  UNL1        0.0420
      2 C         142.2822  143.7207  160.3060 C.3     1  UNL1        0.1909
      3 O         142.5991  142.9830  161.5730 O.3     1  UNL1       -0.3501
      4 C         141.9310  143.3762  162.8572 C.3     1  UNL1        0.1141
      5 C         141.2628  143.7695  164.1412 C.3     1  UNL1        0.0463
      6 C         141.5798  143.0317  165.4082 C.3     1  UNL1        0.0746
      7 N         142.5649  141.9007  165.3910 N.3     1  UNL1       -0.2722
      8 C         143.2331  141.5075  164.1070 C.3     1  UNL1        0.0746
      9 C         142.9161  142.2452  162.8400 C.3     1  UNL1        0.0463
     10 C         140.9458  144.5072  162.8743 C.3     1  UNL1        0.1206
     11 N         140.6289  145.2450  161.6072 N.am    1  UNL1       -0.2734
     12 C         139.6437  146.3760  161.6243 C.3     1  UNL1        0.1150
     13 C         141.2970  144.8517  160.3232 C.2     1  UNL1        0.2529
     14 O         140.9800  145.5895  159.0561 O.2     1  UNL1       -0.2722
     15 C         142.8819  141.1630  166.6581 C.3     1  UNL1        0.0768
     16 C         142.5372  139.7087  166.7855 C.3     1  UNL1        0.0437
     17 C         141.2544  139.1886  166.2076 C.ar    1  UNL1       -0.0208
     18 C         141.2859  138.1535  165.1225 C.ar    1  UNL1       -0.0042
     19 C         140.0032  137.6334  164.5446 C.ar    1  UNL1       -0.0003
     20 C         138.6888  138.1484  165.0520 C.ar    1  UNL1       -0.0000
     21 C         138.6573  139.1834  166.1371 C.ar    1  UNL1       -0.0003
     22 C         139.9401  139.7035  166.7149 C.ar    1  UNL1       -0.0042
@<TRIPOS>BOND
     1     1     2    1
     2     2     3    1
     3     3     4    1
     4     4     5    1
     5     5     6    1
     6     6     7    1
     7     7    15    1
     8    15    16    1
     9    16    17    1
    10    17    18   ar
    11    18    19   ar
    12    19    20   ar
    13    20    21   ar
    14    21    22   ar
    15     7     8    1
    16     8     9    1
    17     4    10    1
    18    10    11    1
    19    11    12    1
    20    11    13   am
    21    13    14    2
    22    13     2    1
    23     9     4    1
    24    22    17   ar
@<TRIPOS>MOLECULE
*****
 22 24 0 0 0
SMALL
GASTEIGER

@<TRIPOS>ATOM
      1 C         143.7101  138.2497  166.5851 C.3     1  UNL1        0.0420
      2 C         142.7916  139.3562  167.0120 C.3     1  UNL1        0.1909
      3 O         142.2066  140.2826  165.9875 O.3     1  UNL1       -0.3501
      4 C         141.2881  141.3891  166.4144 C.3     1  UNL1        0.1141
      5 C         140.3697  142.4955  166.8413 C.3     1  UNL1        0.0463
      6 C         139.7848  143.4219  165.8168 C.3     1  UNL1        0.0746
      7 N         140.1183  143.2420  164.3655 N.3     1  UNL1       -0.2722
      8 C         141.0367  142.1356  163.9386 C.3     1  UNL1        0.0746
      9 C         141.6217  141.2091  164.9630 C.3     1  UNL1        0.0463
     10 C         140.9546  141.5691  167.8657 C.3     1  UNL1        0.1206
     11 N         141.5396  140.6426  168.8902 N.am    1  UNL1       -0.2734
     12 C         141.2061  140.8225  170.3415 C.3     1  UNL1        0.1150
     13 C         142.4580  139.5362  168.4633 C.2     1  UNL1        0.2529
     14 O         143.0430  138.6097  169.4878 O.2     1  UNL1       -0.2722
     15 C         139.5333  144.1685  163.3410 C.3     1  UNL1        0.0768
     16 C         138.2441  143.8159  162.6601 C.3     1  UNL1        0.0437
     17 C         138.1389  142.5498  161.8626 C.ar    1  UNL1       -0.0208
     18 C         138.5085  142.5462  160.4089 C.ar    1  UNL1       -0.0042
     19 C         138.4033  141.2802  159.6114 C.ar    1  UNL1       -0.0003
     20 C         137.9286  140.0177  160.2677 C.ar    1  UNL1       -0.0000
     21 C         137.5590  140.0212  161.7214 C.ar    1  UNL1       -0.0003
     22 C         137.6642  141.2873  162.5188 C.ar    1  UNL1       -0.0042
@<TRIPOS>BOND
     1     1     2    1
     2     2     3    1
     3     3     4    1
     4     4     5    1
     5     5     6    1
     6     6     7    1
     7     7    15    1
     8    15    16    1
     9    16    17    1
    10    17    18   ar
    11    18    19   ar
    12    19    20   ar
    13    20    21   ar
    14    21    22   ar
    15     7     8    1
    16     8     9    1
    17     4    10    1
    18    10    11    1
    19    11    12    1
    20    11    13   am
    21    13    14    2
    22    13     2    1
    23     9     4    1
    24    22    17   ar
@<TRIPOS>MOLECULE
*****
 22 24 0 0 0
SMALL
GASTEIGER

@<TRIPOS>ATOM
      1 C         143.0595  142.9264  170.3698 C.3     1  UNL1        0.0420
      2 C         142.0166  142.1594  169.6119 C.3     1  UNL1        0.1909
      3 O         142.2009  141.8882  168.1482 O.3     1  UNL1       -0.3501
      4 C         141.1581  141.1211  167.3904 C.3     1  UNL1        0.1141
      5 C         140.1153  140.3541  166.6326 C.3     1  UNL1        0.0463
      6 C         140.2997  140.0830  165.1689 C.3     1  UNL1        0.0746
      7 N         141.5268  140.5788  164.4630 N.3     1  UNL1       -0.2722
      8 C         142.5695  141.3458  165.2208 C.3     1  UNL1        0.0746
      9 C         142.3852  141.6170  166.6844 C.3     1  UNL1        0.0463
     10 C         139.9310  140.6253  168.0963 C.3     1  UNL1        0.1206
     11 N         139.7467  140.8965  169.5601 N.am    1  UNL1       -0.2734
     12 C         138.5196  140.4007  170.2660 C.3     1  UNL1        0.1150
     13 C         140.7895  141.6635  170.3179 C.2     1  UNL1        0.2529
     14 O         140.6052  141.9347  171.7816 O.2     1  UNL1       -0.2722
     15 C         141.7110  140.3076  162.9992 C.3     1  UNL1        0.0768
     16 C         141.0087  141.1600  161.9843 C.3     1  UNL1        0.0437
     17 C         140.1069  142.2714  162.4333 C.ar    1  UNL1       -0.0208
     18 C         138.6245  142.0531  162.5017 C.ar    1  UNL1       -0.0042
     19 C         137.7227  143.1644  162.9507 C.ar    1  UNL1       -0.0003
     20 C         138.3033  144.4941  163.3313 C.ar    1  UNL1       -0.0000
     21 C         139.7858  144.7124  163.2628 C.ar    1  UNL1       -0.0003
     22 C         140.6875  143.6011  162.8139 C.ar    1  UNL1       -0.0042
@<TRIPOS>BOND
     1     1     2    1
     2     2     3    1
     3     3     4    1
     4     4     5    1
     5     5     6    1
     6     6     7    1
     7     7    15    1
     8    15    16    1
     9    16    17    1
    10    17    18   ar
    11    18    19   ar
    12    19    20   ar
    13    20    21   ar
    14    21    22   ar
    15     7     8    1
    16     8     9    1
    17     4    10    1
    18    10    11    1
    19    11    12    1
    20    11    13   am
    21    13    14    2
    22    13     2    1
    23     9     4    1
    24    22    17   ar
