@<TRIPOS>MOLECULE
*****
 33 37 0 0 0
SMALL
GASTEIGER

@<TRIPOS>ATOM
      1 N         142.0281  142.6414  165.3315 N.3     1  UNL1       -0.2655
      2 C         143.2308  142.6906  164.4364 C.3     1  UNL1        0.1132
      3 C         143.0973  143.1878  163.0275 C.3     1  UNL1        0.1849
      4 N         141.7612  143.6357  162.5137 N.pl3   1  UNL1       -0.1905
      5 C         140.5584  143.5865  163.4088 C.3     1  UNL1        0.1849
      6 C         140.6919  143.0894  164.8177 C.3     1  UNL1        0.1132
      7 C         141.6277  144.1329  161.1048 C.cat   1  UNL1        0.4230
      8 N         140.5614  145.0551  160.5925 N.2     1  UNL1       -0.0678
      9 C         140.8117  145.2873  159.1319 C.2     1  UNL1        0.1887
     10 C         140.0856  146.1072  158.1070 C.2     1  UNL1        0.0433
     11 C         140.5806  146.1484  156.6917 C.2     1  UNL1        0.0706
     12 C         141.8016  145.3696  156.3012 C.2     1  UNL1       -0.0142
     13 C         142.5278  144.5497  157.3260 C.3     1  UNL1        0.0931
     14 C         142.0328  144.5085  158.7414 C.2     1  UNL1        0.1744
     15 N         142.5372  143.7950  159.9607 N.2     1  UNL1       -0.0716
     16 C         139.8544  146.9683  155.6667 C.3     1  UNL1        0.4184
     17 F         139.1283  147.7883  154.6418 F       1  UNL1       -0.1659
     18 F         138.9419  147.4948  156.7344 F       1  UNL1       -0.1659
     19 F         140.7670  146.4418  154.5989 F       1  UNL1       -0.1659
     20 C         142.1616  142.1442  166.7404 C.3     1  UNL1        0.0971
     21 C         142.0876  140.6737  167.0270 C.3     1  UNL1        0.1264
     22 O         139.5730  140.7901  168.6589 O.2     1  UNL1       -0.2670
     23 C         139.6250  139.9452  167.4206 C.ar    1  UNL1        0.2611
     24 C         138.4197  139.1586  166.9982 C.ar    1  UNL1        0.0623
     25 C         138.4717  138.3137  165.7599 C.ar    1  UNL1        0.0255
     26 C         139.7290  138.2554  164.9439 C.ar    1  UNL1        0.0974
     27 N         139.7810  137.4105  163.7056 N.ar    1  UNL1       -0.2400
     28 C         141.0383  137.3523  162.8897 C.ar    1  UNL1        0.1285
     29 C         142.2436  138.1390  163.3120 C.ar    1  UNL1        0.1607
     30 F         143.5009  138.0808  162.4960 F       1  UNL1       -0.2025
     31 C         142.1916  138.9839  164.5503 C.ar    1  UNL1        0.0500
     32 C         140.9343  139.0421  165.3663 C.ar    1  UNL1        0.0824
     33 N         140.8823  139.8870  166.6046 N.ar    1  UNL1       -0.2926
@<TRIPOS>BOND
     1    22    23    2
     2    23    24   ar
     3    24    25   ar
     4    25    26   ar
     5    26    27   ar
     6    27    28   ar
     7    28    29   ar
     8    29    30    1
     9    29    31   ar
    10    31    32   ar
    11    32    33   ar
    12    33    21    1
    13    21    20    1
    14    20     1    1
    15     1     2    1
    16     2     3    1
    17     3     4    1
    18     4     7    1
    19     7     8    2
    20     8     9    1
    21     9    10    2
    22    10    11    1
    23    11    16    1
    24    16    17    1
    25    16    18    1
    26    16    19    1
    27    11    12    2
    28    12    13    1
    29    13    14    1
    30    14    15    2
    31     4     5    1
    32     5     6    1
    33    33    23   ar
    34     6     1    1
    35    32    26   ar
    36    15     7    1
    37    14     9    1
@<TRIPOS>MOLECULE
*****
 33 37 0 0 0
SMALL
GASTEIGER

@<TRIPOS>ATOM
      1 N         141.8158  138.2624  156.5527 N.3     1  UNL1       -0.2655
      2 C         140.3674  138.3672  156.9283 C.3     1  UNL1        0.1132
      3 C         139.9717  138.4590  158.3723 C.3     1  UNL1        0.1849
      4 N         141.0245  138.4459  159.4407 N.pl3   1  UNL1       -0.1905
      5 C         142.4730  138.3411  159.0651 C.3     1  UNL1        0.1849
      6 C         142.8686  138.2494  157.6211 C.3     1  UNL1        0.1132
      7 C         140.6288  138.5376  160.8846 C.cat   1  UNL1        0.4230
      8 N         139.5149  137.7794  161.5435 N.2     1  UNL1       -0.0678
      9 C         139.4752  138.1768  162.9893 C.2     1  UNL1        0.1887
     10 C         138.5878  137.7543  164.1224 C.2     1  UNL1        0.0433
     11 C         138.7899  138.3357  165.4903 C.2     1  UNL1        0.0706
     12 C         139.8795  139.3396  165.7250 C.2     1  UNL1       -0.0142
     13 C         140.7668  139.7621  164.5919 C.3     1  UNL1        0.0931
     14 C         140.5647  139.1807  163.2241 C.2     1  UNL1        0.1744
     15 N         141.2778  139.4038  161.9233 N.2     1  UNL1       -0.0716
     16 C         137.9025  137.9132  166.6235 C.3     1  UNL1        0.4184
     17 F         137.0152  137.4907  167.7566 F       1  UNL1       -0.1659
     18 F         137.9639  139.3011  167.1889 F       1  UNL1       -0.1659
     19 F         137.8412  136.5252  166.0579 F       1  UNL1       -0.1659
     20 C         142.2115  138.1707  155.1088 C.3     1  UNL1        0.0971
     21 C         143.1411  137.0851  154.6533 C.3     1  UNL1        0.1264
     22 O         141.7183  136.7746  152.0305 O.2     1  UNL1       -0.2670
     23 C         141.8814  135.5928  152.9398 C.ar    1  UNL1        0.2611
     24 C         141.3332  134.2557  152.5376 C.ar    1  UNL1        0.0623
     25 C         141.4963  133.0740  153.4469 C.ar    1  UNL1        0.0255
     26 C         142.2077  133.2292  154.7584 C.ar    1  UNL1        0.0974
     27 N         142.3708  132.0474  155.6676 N.ar    1  UNL1       -0.2400
     28 C         143.0822  132.2027  156.9790 C.ar    1  UNL1        0.1285
     29 C         143.6304  133.5397  157.3811 C.ar    1  UNL1        0.1607
     30 F         144.3418  133.6949  158.6926 F       1  UNL1       -0.2025
     31 C         143.4673  134.7215  156.4719 C.ar    1  UNL1        0.0500
     32 C         142.7559  134.5662  155.1605 C.ar    1  UNL1        0.0824
     33 N         142.5928  135.7480  154.2512 N.ar    1  UNL1       -0.2926
@<TRIPOS>BOND
     1    22    23    2
     2    23    24   ar
     3    24    25   ar
     4    25    26   ar
     5    26    27   ar
     6    27    28   ar
     7    28    29   ar
     8    29    30    1
     9    29    31   ar
    10    31    32   ar
    11    32    33   ar
    12    33    21    1
    13    21    20    1
    14    20     1    1
    15     1     2    1
    16     2     3    1
    17     3     4    1
    18     4     7    1
    19     7     8    2
    20     8     9    1
    21     9    10    2
    22    10    11    1
    23    11    16    1
    24    16    17    1
    25    16    18    1
    26    16    19    1
    27    11    12    2
    28    12    13    1
    29    13    14    1
    30    14    15    2
    31     4     5    1
    32     5     6    1
    33    33    23   ar
    34     6     1    1
    35    32    26   ar
    36    15     7    1
    37    14     9    1
@<TRIPOS>MOLECULE
*****
 33 37 0 0 0
SMALL
GASTEIGER

@<TRIPOS>ATOM
      1 N         142.8636  142.9496  164.9167 N.3     1  UNL1       -0.2655
      2 C         141.4471  143.1589  164.4698 C.3     1  UNL1        0.1132
      3 C         141.1615  143.6039  163.0661 C.3     1  UNL1        0.1849
      4 N         142.2923  143.8396  162.1093 N.pl3   1  UNL1       -0.1905
      5 C         143.7089  143.6303  162.5561 C.3     1  UNL1        0.1849
      6 C         143.9945  143.1853  163.9598 C.3     1  UNL1        0.1132
      7 C         142.0067  144.2846  160.7055 C.cat   1  UNL1        0.4230
      8 N         140.9040  145.2084  160.2806 N.2     1  UNL1       -0.0678
      9 C         140.9894  145.3786  158.7927 C.2     1  UNL1        0.1887
     10 C         140.1643  146.1733  157.8244 C.2     1  UNL1        0.0433
     11 C         140.4947  146.1494  156.3615 C.2     1  UNL1        0.0706
     12 C         141.6502  145.3307  155.8669 C.2     1  UNL1       -0.0142
     13 C         142.4753  144.5360  156.8352 C.3     1  UNL1        0.0931
     14 C         142.1449  144.5600  158.2981 C.2     1  UNL1        0.1744
     15 N         142.7737  143.8838  159.4803 N.2     1  UNL1       -0.0716
     16 C         139.6696  146.9441  155.3931 C.3     1  UNL1        0.4184
     17 F         138.8446  147.7387  154.4247 F       1  UNL1       -0.1659
     18 F         140.2252  146.1370  154.2574 F       1  UNL1       -0.1659
     19 F         139.1140  147.7512  156.5289 F       1  UNL1       -0.1659
     20 C         143.1492  142.5046  166.3204 C.3     1  UNL1        0.0971
     21 C         142.8252  141.1024  166.7433 C.3     1  UNL1        0.1264
     22 O         143.2264  142.0231  169.5702 O.2     1  UNL1       -0.2670
     23 C         141.9609  141.3163  169.1840 C.ar    1  UNL1        0.2611
     24 C         140.8961  141.0698  170.2113 C.ar    1  UNL1        0.0623
     25 C         139.6306  140.3631  169.8252 C.ar    1  UNL1        0.0255
     26 C         139.4300  139.9027  168.4117 C.ar    1  UNL1        0.0974
     27 N         138.1646  139.1959  168.0256 N.ar    1  UNL1       -0.2400
     28 C         137.9640  138.7356  166.6122 C.ar    1  UNL1        0.1285
     29 C         139.0288  138.9821  165.5848 C.ar    1  UNL1        0.1607
     30 F         138.8282  138.5217  164.1714 F       1  UNL1       -0.2025
     31 C         140.2942  139.6888  165.9710 C.ar    1  UNL1        0.0500
     32 C         140.4948  140.1491  167.3844 C.ar    1  UNL1        0.0824
     33 N         141.7603  140.8559  167.7706 N.ar    1  UNL1       -0.2926
@<TRIPOS>BOND
     1    22    23    2
     2    23    24   ar
     3    24    25   ar
     4    25    26   ar
     5    26    27   ar
     6    27    28   ar
     7    28    29   ar
     8    29    30    1
     9    29    31   ar
    10    31    32   ar
    11    32    33   ar
    12    33    21    1
    13    21    20    1
    14    20     1    1
    15     1     2    1
    16     2     3    1
    17     3     4    1
    18     4     7    1
    19     7     8    2
    20     8     9    1
    21     9    10    2
    22    10    11    1
    23    11    16    1
    24    16    17    1
    25    16    18    1
    26    16    19    1
    27    11    12    2
    28    12    13    1
    29    13    14    1
    30    14    15    2
    31     4     5    1
    32     5     6    1
    33    33    23   ar
    34     6     1    1
    35    32    26   ar
    36    15     7    1
    37    14     9    1
@<TRIPOS>MOLECULE
*****
 33 37 0 0 0
SMALL
GASTEIGER

@<TRIPOS>ATOM
      1 N         140.5147  143.0157  165.4666 N.3     1  UNL1       -0.2655
      2 C         141.8715  143.1246  164.8365 C.3     1  UNL1        0.1132
      3 C         142.0010  143.5449  163.4024 C.3     1  UNL1        0.1849
      4 N         140.7736  143.8563  162.5984 N.pl3   1  UNL1       -0.1905
      5 C         139.4166  143.7473  163.2285 C.3     1  UNL1        0.1849
      6 C         139.2872  143.3270  164.6625 C.3     1  UNL1        0.1132
      7 C         140.9030  144.2765  161.1643 C.cat   1  UNL1        0.4230
      8 N         139.9631  145.1795  160.4219 N.2     1  UNL1       -0.0678
      9 C         140.4743  145.3287  159.0196 C.2     1  UNL1        0.1887
     10 C         139.9585  146.0980  157.8398 C.2     1  UNL1        0.0433
     11 C         140.6985  146.0566  156.5357 C.2     1  UNL1        0.0706
     12 C         141.9544  145.2459  156.4115 C.2     1  UNL1       -0.0142
     13 C         142.4703  144.4765  157.5913 C.3     1  UNL1        0.0931
     14 C         141.7302  144.5179  158.8953 C.2     1  UNL1        0.1744
     15 N         141.9952  143.8676  160.2209 N.2     1  UNL1       -0.0716
     16 C         140.1827  146.8260  155.3558 C.3     1  UNL1        0.4184
     17 F         139.6670  147.5953  154.1760 F       1  UNL1       -0.1659
     18 F         141.3842  146.4106  154.5598 F       1  UNL1       -0.1659
     19 F         138.9811  147.2414  156.1520 F       1  UNL1       -0.1659
     20 C         140.3852  142.5954  166.9007 C.3     1  UNL1        0.0971
     21 C         140.1481  141.1539  167.2413 C.3     1  UNL1        0.1264
     22 O         142.7327  140.5990  168.6598 O.2     1  UNL1       -0.2670
     23 C         142.3697  139.8202  167.4302 C.ar    1  UNL1        0.2611
     24 C         143.2990  138.7639  166.9099 C.ar    1  UNL1        0.0623
     25 C         142.9361  137.9852  165.6804 C.ar    1  UNL1        0.0255
     26 C         141.6438  138.2626  164.9711 C.ar    1  UNL1        0.0974
     27 N         141.2809  137.4839  163.7416 N.ar    1  UNL1       -0.2400
     28 C         139.9886  137.7613  163.0323 C.ar    1  UNL1        0.1285
     29 C         139.0593  138.8176  163.5526 C.ar    1  UNL1        0.1607
     30 F         137.7670  139.0950  162.8433 F       1  UNL1       -0.2025
     31 C         139.4222  139.5963  164.7821 C.ar    1  UNL1        0.0500
     32 C         140.7144  139.3189  165.4914 C.ar    1  UNL1        0.0824
     33 N         141.0774  140.0977  166.7210 N.ar    1  UNL1       -0.2926
@<TRIPOS>BOND
     1    22    23    2
     2    23    24   ar
     3    24    25   ar
     4    25    26   ar
     5    26    27   ar
     6    27    28   ar
     7    28    29   ar
     8    29    30    1
     9    29    31   ar
    10    31    32   ar
    11    32    33   ar
    12    33    21    1
    13    21    20    1
    14    20     1    1
    15     1     2    1
    16     2     3    1
    17     3     4    1
    18     4     7    1
    19     7     8    2
    20     8     9    1
    21     9    10    2
    22    10    11    1
    23    11    16    1
    24    16    17    1
    25    16    18    1
    26    16    19    1
    27    11    12    2
    28    12    13    1
    29    13    14    1
    30    14    15    2
    31     4     5    1
    32     5     6    1
    33    33    23   ar
    34     6     1    1
    35    32    26   ar
    36    15     7    1
    37    14     9    1
@<TRIPOS>MOLECULE
*****
 33 37 0 0 0
SMALL
GASTEIGER

@<TRIPOS>ATOM
      1 N         140.2607  141.5192  159.1797 N.3     1  UNL1       -0.2655
      2 C         139.2721  140.6753  158.4311 C.3     1  UNL1        0.1132
      3 C         139.7063  139.3767  157.8186 C.3     1  UNL1        0.1849
      4 N         141.1292  138.9221  157.9547 N.pl3   1  UNL1       -0.1905
      5 C         142.1180  139.7659  158.7033 C.3     1  UNL1        0.1849
      6 C         141.6837  141.0645  159.3158 C.3     1  UNL1        0.1132
      7 C         141.5635  137.6235  157.3422 C.cat   1  UNL1        0.4230
      8 N         142.7003  136.7642  157.8106 N.2     1  UNL1       -0.0678
      9 C         142.7766  135.5659  156.9117 C.2     1  UNL1        0.1887
     10 C         143.6975  134.3820  156.8932 C.2     1  UNL1        0.0433
     11 C         143.5287  133.3168  155.8508 C.2     1  UNL1        0.0706
     12 C         142.4391  133.4354  154.8268 C.2     1  UNL1       -0.0142
     13 C         141.5182  134.6193  154.8452 C.3     1  UNL1        0.0931
     14 C         141.6870  135.6845  155.8876 C.2     1  UNL1        0.1744
     15 N         140.9372  136.9562  156.1537 N.2     1  UNL1       -0.0716
     16 C         144.4496  132.1328  155.8324 C.3     1  UNL1        0.4184
     17 F         145.3705  130.9490  155.8140 F       1  UNL1       -0.1659
     18 F         145.0519  132.5811  157.1309 F       1  UNL1       -0.1659
     19 F         143.8473  131.6845  154.5337 F       1  UNL1       -0.1659
     20 C         139.8264  142.8177  159.7922 C.3     1  UNL1        0.0971
     21 C         138.5741  142.8768  160.6158 C.3     1  UNL1        0.1264
     22 O         138.8290  145.6242  161.7935 O.2     1  UNL1       -0.2670
     23 C         138.7897  144.4237  162.6920 C.ar    1  UNL1        0.2611
     24 C         138.8777  144.5970  164.1794 C.ar    1  UNL1        0.0623
     25 C         138.8383  143.3966  165.0779 C.ar    1  UNL1        0.0255
     26 C         138.7109  142.0228  164.4891 C.ar    1  UNL1        0.0974
     27 N         138.6715  140.8224  165.3877 N.ar    1  UNL1       -0.2400
     28 C         138.5440  139.4488  164.7988 C.ar    1  UNL1        0.1285
     29 C         138.4560  139.2755  163.3115 C.ar    1  UNL1        0.1607
     30 F         138.3285  137.9017  162.7227 F       1  UNL1       -0.2025
     31 C         138.4954  140.4759  162.4129 C.ar    1  UNL1        0.0500
     32 C         138.6228  141.8496  163.0018 C.ar    1  UNL1        0.0824
     33 N         138.6622  143.0501  162.1032 N.ar    1  UNL1       -0.2926
@<TRIPOS>BOND
     1    22    23    2
     2    23    24   ar
     3    24    25   ar
     4    25    26   ar
     5    26    27   ar
     6    27    28   ar
     7    28    29   ar
     8    29    30    1
     9    29    31   ar
    10    31    32   ar
    11    32    33   ar
    12    33    21    1
    13    21    20    1
    14    20     1    1
    15     1     2    1
    16     2     3    1
    17     3     4    1
    18     4     7    1
    19     7     8    2
    20     8     9    1
    21     9    10    2
    22    10    11    1
    23    11    16    1
    24    16    17    1
    25    16    18    1
    26    16    19    1
    27    11    12    2
    28    12    13    1
    29    13    14    1
    30    14    15    2
    31     4     5    1
    32     5     6    1
    33    33    23   ar
    34     6     1    1
    35    32    26   ar
    36    15     7    1
    37    14     9    1
@<TRIPOS>MOLECULE
*****
 33 37 0 0 0
SMALL
GASTEIGER

@<TRIPOS>ATOM
      1 N         140.5345  143.2962  164.5731 N.3     1  UNL1       -0.2655
      2 C         139.8066  142.5252  163.5122 C.3     1  UNL1        0.1132
      3 C         139.8958  142.9554  162.0779 C.3     1  UNL1        0.1849
      4 N         140.7130  144.1566  161.7047 N.pl3   1  UNL1       -0.1905
      5 C         141.4409  144.9276  162.7657 C.3     1  UNL1        0.1849
      6 C         141.3517  144.4975  164.1999 C.3     1  UNL1        0.1132
      7 C         140.8022  144.5867  160.2705 C.cat   1  UNL1        0.4230
      8 N         139.9746  145.6534  159.6168 N.2     1  UNL1       -0.0678
      9 C         140.3956  145.7517  158.1804 C.2     1  UNL1        0.1887
     10 C         139.9289  146.6272  157.0554 C.2     1  UNL1        0.0433
     11 C         140.5501  146.4968  155.6963 C.2     1  UNL1        0.0706
     12 C         141.6380  145.4909  155.4623 C.2     1  UNL1       -0.0142
     13 C         142.1046  144.6154  156.5873 C.3     1  UNL1        0.0931
     14 C         141.4834  144.7458  157.9464 C.2     1  UNL1        0.1744
     15 N         141.7348  144.0258  159.2381 N.2     1  UNL1       -0.0716
     16 C         140.0835  147.3723  154.5712 C.3     1  UNL1        0.4184
     17 F         139.6168  148.2478  153.4462 F       1  UNL1       -0.1659
     18 F         139.0314  147.9596  155.4646 F       1  UNL1       -0.1659
     19 F         141.1356  146.7849  153.6778 F       1  UNL1       -0.1659
     20 C         140.4453  142.8660  166.0073 C.3     1  UNL1        0.0971
     21 C         141.4137  141.8568  166.5493 C.3     1  UNL1        0.1264
     22 O         144.0946  143.0395  165.9055 O.2     1  UNL1       -0.2670
     23 C         143.6872  141.7298  165.2982 C.ar    1  UNL1        0.2611
     24 C         144.6202  141.0115  164.3690 C.ar    1  UNL1        0.0623
     25 C         144.2129  139.7018  163.7616 C.ar    1  UNL1        0.0255
     26 C         142.8725  139.1104  164.0835 C.ar    1  UNL1        0.0974
     27 N         142.4651  137.8008  163.4762 N.ar    1  UNL1       -0.2400
     28 C         141.1248  137.2095  163.7981 C.ar    1  UNL1        0.1285
     29 C         140.1917  137.9278  164.7273 C.ar    1  UNL1        0.1607
     30 F         138.8512  137.3364  165.0492 F       1  UNL1       -0.2025
     31 C         140.5990  139.2374  165.3346 C.ar    1  UNL1        0.0500
     32 C         141.9394  139.8287  165.0127 C.ar    1  UNL1        0.0824
     33 N         142.3468  141.1385  165.6201 N.ar    1  UNL1       -0.2926
@<TRIPOS>BOND
     1    22    23    2
     2    23    24   ar
     3    24    25   ar
     4    25    26   ar
     5    26    27   ar
     6    27    28   ar
     7    28    29   ar
     8    29    30    1
     9    29    31   ar
    10    31    32   ar
    11    32    33   ar
    12    33    21    1
    13    21    20    1
    14    20     1    1
    15     1     2    1
    16     2     3    1
    17     3     4    1
    18     4     7    1
    19     7     8    2
    20     8     9    1
    21     9    10    2
    22    10    11    1
    23    11    16    1
    24    16    17    1
    25    16    18    1
    26    16    19    1
    27    11    12    2
    28    12    13    1
    29    13    14    1
    30    14    15    2
    31     4     5    1
    32     5     6    1
    33    33    23   ar
    34     6     1    1
    35    32    26   ar
    36    15     7    1
    37    14     9    1
@<TRIPOS>MOLECULE
*****
 33 37 0 0 0
SMALL
GASTEIGER

@<TRIPOS>ATOM
      1 N         141.7534  141.3049  159.9650 N.3     1  UNL1       -0.2655
      2 C         142.9817  141.0785  159.1345 C.3     1  UNL1        0.1132
      3 C         143.1485  139.7948  158.3766 C.3     1  UNL1        0.1849
      4 N         142.0869  138.7376  158.4492 N.pl3   1  UNL1       -0.1905
      5 C         140.8585  138.9640  159.2798 C.3     1  UNL1        0.1849
      6 C         140.6917  140.2477  160.0377 C.3     1  UNL1        0.1132
      7 C         142.2537  137.4540  157.6913 C.cat   1  UNL1        0.4230
      8 N         143.3172  136.4228  157.9268 N.2     1  UNL1       -0.0678
      9 C         143.1071  135.3076  156.9459 C.2     1  UNL1        0.1887
     10 C         143.8482  134.0250  156.7105 C.2     1  UNL1        0.0433
     11 C         143.3959  133.0843  155.6332 C.2     1  UNL1        0.0706
     12 C         142.2025  133.4263  154.7913 C.2     1  UNL1       -0.0142
     13 C         141.4613  134.7090  155.0268 C.3     1  UNL1        0.0931
     14 C         141.9136  135.6496  156.1040 C.2     1  UNL1        0.1744
     15 N         141.3861  136.9761  156.5647 N.2     1  UNL1       -0.0716
     16 C         144.1371  131.8016  155.3977 C.3     1  UNL1        0.4184
     17 F         144.8782  130.5190  155.1623 F       1  UNL1       -0.1659
     18 F         145.2141  132.2510  156.3401 F       1  UNL1       -0.1659
     19 F         143.0600  131.3522  154.4553 F       1  UNL1       -0.1659
     20 C         141.5866  142.5886  160.7229 C.3     1  UNL1        0.0971
     21 C         141.7673  142.6093  162.2119 C.3     1  UNL1        0.1264
     22 O         144.4913  143.8071  161.8308 O.2     1  UNL1       -0.2670
     23 C         144.3292  142.5548  162.6404 C.ar    1  UNL1        0.2611
     24 C         145.5291  141.9014  163.2595 C.ar    1  UNL1        0.0623
     25 C         145.3671  140.6491  164.0691 C.ar    1  UNL1        0.0255
     26 C         144.0050  140.0501  164.2597 C.ar    1  UNL1        0.0974
     27 N         143.8430  138.7979  165.0692 N.ar    1  UNL1       -0.2400
     28 C         142.4811  138.1990  165.2598 C.ar    1  UNL1        0.1285
     29 C         141.2811  138.8524  164.6407 C.ar    1  UNL1        0.1607
     30 F         139.9191  138.2534  164.8313 F       1  UNL1       -0.2025
     31 C         141.4432  140.1047  163.8311 C.ar    1  UNL1        0.0500
     32 C         142.8051  140.7035  163.6406 C.ar    1  UNL1        0.0824
     33 N         142.9672  141.9559  162.8310 N.ar    1  UNL1       -0.2926
@<TRIPOS>BOND
     1    22    23    2
     2    23    24   ar
     3    24    25   ar
     4    25    26   ar
     5    26    27   ar
     6    27    28   ar
     7    28    29   ar
     8    29    30    1
     9    29    31   ar
    10    31    32   ar
    11    32    33   ar
    12    33    21    1
    13    21    20    1
    14    20     1    1
    15     1     2    1
    16     2     3    1
    17     3     4    1
    18     4     7    1
    19     7     8    2
    20     8     9    1
    21     9    10    2
    22    10    11    1
    23    11    16    1
    24    16    17    1
    25    16    18    1
    26    16    19    1
    27    11    12    2
    28    12    13    1
    29    13    14    1
    30    14    15    2
    31     4     5    1
    32     5     6    1
    33    33    23   ar
    34     6     1    1
    35    32    26   ar
    36    15     7    1
    37    14     9    1
@<TRIPOS>MOLECULE
*****
 33 37 0 0 0
SMALL
GASTEIGER

@<TRIPOS>ATOM
      1 N         141.3112  138.1339  158.2890 N.3     1  UNL1       -0.2655
      2 C         142.6387  137.9407  158.9600 C.3     1  UNL1        0.1132
      3 C         142.7680  138.1468  160.4402 C.3     1  UNL1        0.1849
      4 N         141.5697  138.5462  161.2492 N.pl3   1  UNL1       -0.1905
      5 C         140.2421  138.7394  160.5782 C.3     1  UNL1        0.1849
      6 C         140.1129  138.5333  159.0980 C.3     1  UNL1        0.1132
      7 C         141.6989  138.7524  162.7294 C.cat   1  UNL1        0.4230
      8 N         140.6617  139.3557  163.6294 N.2     1  UNL1       -0.0678
      9 C         141.2098  139.3676  165.0257 C.2     1  UNL1        0.1887
     10 C         140.6337  139.8442  166.3260 C.2     1  UNL1        0.0433
     11 C         141.4336  139.7247  167.5892 C.2     1  UNL1        0.0706
     12 C         142.8096  139.1288  167.5521 C.2     1  UNL1       -0.0142
     13 C         143.3858  138.6523  166.2518 C.3     1  UNL1        0.0931
     14 C         142.5858  138.7717  164.9885 C.2     1  UNL1        0.1744
     15 N         142.8882  138.3914  163.5693 N.2     1  UNL1       -0.0716
     16 C         140.8575  140.2013  168.8897 C.3     1  UNL1        0.4184
     17 F         140.2815  140.6777  170.1901 F       1  UNL1       -0.1659
     18 F         141.6369  139.1486  169.6207 F       1  UNL1       -0.1659
     19 F         140.0781  141.2540  168.1587 F       1  UNL1       -0.1659
     20 C         141.1820  137.9277  156.8088 C.3     1  UNL1        0.0971
     21 C         142.3783  137.5193  156.0012 C.3     1  UNL1        0.1264
     22 O         141.0748  137.8440  153.3187 O.2     1  UNL1       -0.2670
     23 C         141.6361  136.5132  153.7238 C.ar    1  UNL1        0.2611
     24 C         141.5455  135.3447  152.7875 C.ar    1  UNL1        0.0623
     25 C         142.1067  134.0140  153.1925 C.ar    1  UNL1        0.0255
     26 C         142.7585  133.8516  154.5338 C.ar    1  UNL1        0.0974
     27 N         143.3196  132.5208  154.9387 N.ar    1  UNL1       -0.2400
     28 C         143.9714  132.3585  156.2799 C.ar    1  UNL1        0.1285
     29 C         144.0619  133.5269  157.2162 C.ar    1  UNL1        0.1607
     30 F         144.7136  133.3645  158.5575 F       1  UNL1       -0.2025
     31 C         143.5007  134.8577  156.8112 C.ar    1  UNL1        0.0500
     32 C         142.8490  135.0200  155.4700 C.ar    1  UNL1        0.0824
     33 N         142.2878  136.3509  155.0650 N.ar    1  UNL1       -0.2926
@<TRIPOS>BOND
     1    22    23    2
     2    23    24   ar
     3    24    25   ar
     4    25    26   ar
     5    26    27   ar
     6    27    28   ar
     7    28    29   ar
     8    29    30    1
     9    29    31   ar
    10    31    32   ar
    11    32    33   ar
    12    33    21    1
    13    21    20    1
    14    20     1    1
    15     1     2    1
    16     2     3    1
    17     3     4    1
    18     4     7    1
    19     7     8    2
    20     8     9    1
    21     9    10    2
    22    10    11    1
    23    11    16    1
    24    16    17    1
    25    16    18    1
    26    16    19    1
    27    11    12    2
    28    12    13    1
    29    13    14    1
    30    14    15    2
    31     4     5    1
    32     5     6    1
    33    33    23   ar
    34     6     1    1
    35    32    26   ar
    36    15     7    1
    37    14     9    1
@<TRIPOS>MOLECULE
*****
 33 37 0 0 0
SMALL
GASTEIGER

@<TRIPOS>ATOM
      1 N         141.0729  140.5532  158.5054 N.3     1  UNL1       -0.2655
      2 C         139.9663  139.5834  158.2141 C.3     1  UNL1        0.1132
      3 C         140.2822  138.2385  157.6298 C.3     1  UNL1        0.1849
      4 N         141.7046  137.8634  157.3367 N.pl3   1  UNL1       -0.1905
      5 C         142.8113  138.8332  157.6279 C.3     1  UNL1        0.1849
      6 C         142.4954  140.1781  158.2123 C.3     1  UNL1        0.1132
      7 C         142.0204  136.5185  156.7523 C.cat   1  UNL1        0.4230
      8 N         143.1295  135.6068  157.1868 N.2     1  UNL1       -0.0678
      9 C         143.0772  134.3740  156.3339 C.2     1  UNL1        0.1887
     10 C         143.9214  133.1344  156.3087 C.2     1  UNL1        0.0433
     11 C         143.6242  132.0446  155.3218 C.2     1  UNL1        0.0706
     12 C         142.4828  132.1943  154.3602 C.2     1  UNL1       -0.0142
     13 C         141.6385  133.4339  154.3854 C.3     1  UNL1        0.0931
     14 C         141.9357  134.5237  155.3723 C.2     1  UNL1        0.1744
     15 N         141.2826  135.8491  155.6308 N.2     1  UNL1       -0.0716
     16 C         144.4684  130.8049  155.2965 C.3     1  UNL1        0.4184
     17 F         145.3127  129.5653  155.2713 F       1  UNL1       -0.1659
     18 F         145.5046  131.4935  156.1344 F       1  UNL1       -0.1659
     19 F         143.4322  130.1163  154.4586 F       1  UNL1       -0.1659
     20 C         140.7571  141.8981  159.0897 C.3     1  UNL1        0.0971
     21 C         140.7984  142.0987  160.5757 C.3     1  UNL1        0.1264
     22 O         138.0608  143.1942  161.1284 O.2     1  UNL1       -0.2670
     23 C         138.4839  141.8903  161.7375 C.ar    1  UNL1        0.2611
     24 C         137.5382  141.1342  162.6229 C.ar    1  UNL1        0.0623
     25 C         137.9612  139.8304  163.2319 C.ar    1  UNL1        0.0255
     26 C         139.3300  139.2826  162.9556 C.ar    1  UNL1        0.0974
     27 N         139.7531  137.9787  163.5647 N.ar    1  UNL1       -0.2400
     28 C         141.1218  137.4310  163.2883 C.ar    1  UNL1        0.1285
     29 C         142.0676  138.1871  162.4029 C.ar    1  UNL1        0.1607
     30 F         143.4364  137.6392  162.1266 F       1  UNL1       -0.2025
     31 C         141.6445  139.4909  161.7939 C.ar    1  UNL1        0.0500
     32 C         140.2758  140.0387  162.0702 C.ar    1  UNL1        0.0824
     33 N         139.8527  141.3426  161.4611 N.ar    1  UNL1       -0.2926
@<TRIPOS>BOND
     1    22    23    2
     2    23    24   ar
     3    24    25   ar
     4    25    26   ar
     5    26    27   ar
     6    27    28   ar
     7    28    29   ar
     8    29    30    1
     9    29    31   ar
    10    31    32   ar
    11    32    33   ar
    12    33    21    1
    13    21    20    1
    14    20     1    1
    15     1     2    1
    16     2     3    1
    17     3     4    1
    18     4     7    1
    19     7     8    2
    20     8     9    1
    21     9    10    2
    22    10    11    1
    23    11    16    1
    24    16    17    1
    25    16    18    1
    26    16    19    1
    27    11    12    2
    28    12    13    1
    29    13    14    1
    30    14    15    2
    31     4     5    1
    32     5     6    1
    33    33    23   ar
    34     6     1    1
    35    32    26   ar
    36    15     7    1
    37    14     9    1
