@<TRIPOS>MOLECULE
*****
 19 21 0 0 0
SMALL
GASTEIGER

@<TRIPOS>ATOM
      1 BR        141.8322  145.1167  163.5533 Br      1  UNL1       -0.0489
      2 C         140.4134  144.6300  163.5551 C.ar    1  UNL1        0.0360
      3 C         139.5714  144.7776  164.7877 C.ar    1  UNL1        0.0068
      4 C         138.1526  144.2909  164.7896 C.ar    1  UNL1        0.0021
      5 C         137.5757  143.6567  163.5588 C.ar    1  UNL1        0.0192
      6 C         138.4176  143.5091  162.3262 C.ar    1  UNL1        0.0824
      7 N         137.8407  142.8748  161.0953 N.ar    1  UNL1       -0.2371
      8 C         138.6826  142.7273  159.8627 C.ar    1  UNL1        0.1228
      9 C         140.1015  143.2139  159.8609 C.ar    1  UNL1        0.0276
     10 C         140.6784  143.8482  161.0917 C.ar    1  UNL1        0.0042
     11 C         139.8364  143.9958  162.3244 C.ar    1  UNL1        0.0240
     12 C         138.1057  142.0930  158.6318 C.1     1  UNL1       -0.0390
     13 C         137.5288  141.4588  157.4011 C.1     1  UNL1       -0.0390
     14 C         136.9518  140.8246  156.1703 C.ar    1  UNL1        0.1229
     15 C         135.7319  141.4125  155.5251 C.ar    1  UNL1        0.0276
     16 C         135.1550  140.7783  154.2943 C.ar    1  UNL1        0.0038
     17 C         135.7979  139.5561  153.7087 C.ar    1  UNL1        0.0207
     18 C         137.0177  138.9682  154.3538 C.ar    1  UNL1        0.0996
     19 N         137.5947  139.6024  155.5847 N.ar    1  UNL1       -0.2356
@<TRIPOS>BOND
     1     1     2    1
     2     2     3   ar
     3     3     4   ar
     4     4     5   ar
     5     5     6   ar
     6     6     7   ar
     7     7     8   ar
     8     8    12    1
     9    12    13    3
    10    13    14    1
    11    14    15   ar
    12    15    16   ar
    13    16    17   ar
    14    17    18   ar
    15    18    19   ar
    16     8     9   ar
    17     9    10   ar
    18    10    11   ar
    19    11     2   ar
    20    11     6   ar
    21    19    14   ar
@<TRIPOS>MOLECULE
*****
 19 21 0 0 0
SMALL
GASTEIGER

@<TRIPOS>ATOM
      1 BR        140.6269  141.6836  168.8234 Br      1  UNL1       -0.0489
      2 C         139.9343  141.0139  167.6736 C.ar    1  UNL1        0.0360
      3 C         139.1104  139.7827  167.9086 C.ar    1  UNL1        0.0068
      4 C         138.4178  139.1131  166.7589 C.ar    1  UNL1        0.0021
      5 C         138.5492  139.6746  165.3742 C.ar    1  UNL1        0.0192
      6 C         139.3731  140.9057  165.1392 C.ar    1  UNL1        0.0824
      7 N         139.5045  141.4673  163.7545 N.ar    1  UNL1       -0.2371
      8 C         140.3284  142.6985  163.5195 C.ar    1  UNL1        0.1228
      9 C         141.0210  143.3682  164.6693 C.ar    1  UNL1        0.0276
     10 C         140.8897  142.8067  166.0539 C.ar    1  UNL1        0.0042
     11 C         140.0657  141.5754  166.2890 C.ar    1  UNL1        0.0240
     12 C         140.4598  143.2601  162.1348 C.1     1  UNL1       -0.0390
     13 C         140.5912  143.8216  160.7501 C.1     1  UNL1       -0.0390
     14 C         140.7225  144.3831  159.3654 C.ar    1  UNL1        0.1229
     15 C         139.7677  143.9574  158.2897 C.ar    1  UNL1        0.0276
     16 C         139.8990  144.5189  156.9050 C.ar    1  UNL1        0.0038
     17 C         140.9852  145.5062  156.5960 C.ar    1  UNL1        0.0207
     18 C         141.9401  145.9319  157.6716 C.ar    1  UNL1        0.0996
     19 N         141.8087  145.3704  159.0563 N.ar    1  UNL1       -0.2356
@<TRIPOS>BOND
     1     1     2    1
     2     2     3   ar
     3     3     4   ar
     4     4     5   ar
     5     5     6   ar
     6     6     7   ar
     7     7     8   ar
     8     8    12    1
     9    12    13    3
    10    13    14    1
    11    14    15   ar
    12    15    16   ar
    13    16    17   ar
    14    17    18   ar
    15    18    19   ar
    16     8     9   ar
    17     9    10   ar
    18    10    11   ar
    19    11     2   ar
    20    11     6   ar
    21    19    14   ar
@<TRIPOS>MOLECULE
*****
 19 21 0 0 0
SMALL
GASTEIGER

@<TRIPOS>ATOM
      1 BR        140.7704  142.5155  166.3120 Br      1  UNL1       -0.0489
      2 C         141.9182  142.9135  165.4322 C.ar    1  UNL1        0.0360
      3 C         143.3273  142.7645  165.9244 C.ar    1  UNL1        0.0068
      4 C         144.4751  143.1625  165.0446 C.ar    1  UNL1        0.0021
      5 C         144.2139  143.7095  163.6725 C.ar    1  UNL1        0.0192
      6 C         142.8048  143.8585  163.1803 C.ar    1  UNL1        0.0824
      7 N         142.5435  144.4055  161.8083 N.ar    1  UNL1       -0.2371
      8 C         141.1344  144.5545  161.3161 C.ar    1  UNL1        0.1228
      9 C         139.9866  144.1565  162.1959 C.ar    1  UNL1        0.0276
     10 C         140.2479  143.6095  163.5679 C.ar    1  UNL1        0.0042
     11 C         141.6570  143.4605  164.0602 C.ar    1  UNL1        0.0240
     12 C         140.8731  145.1015  159.9440 C.1     1  UNL1       -0.0390
     13 C         140.6118  145.6485  158.5719 C.1     1  UNL1       -0.0390
     14 C         140.3505  146.1955  157.1999 C.ar    1  UNL1        0.1229
     15 C         141.1733  145.7270  156.0365 C.ar    1  UNL1        0.0276
     16 C         140.9120  146.2740  154.6644 C.ar    1  UNL1        0.0038
     17 C         139.8278  147.2894  154.4558 C.ar    1  UNL1        0.0207
     18 C         139.0050  147.7579  155.6192 C.ar    1  UNL1        0.0996
     19 N         139.2663  147.2109  156.9913 N.ar    1  UNL1       -0.2356
@<TRIPOS>BOND
     1     1     2    1
     2     2     3   ar
     3     3     4   ar
     4     4     5   ar
     5     5     6   ar
     6     6     7   ar
     7     7     8   ar
     8     8    12    1
     9    12    13    3
    10    13    14    1
    11    14    15   ar
    12    15    16   ar
    13    16    17   ar
    14    17    18   ar
    15    18    19   ar
    16     8     9   ar
    17     9    10   ar
    18    10    11   ar
    19    11     2   ar
    20    11     6   ar
    21    19    14   ar
@<TRIPOS>MOLECULE
*****
 19 21 0 0 0
SMALL
GASTEIGER

@<TRIPOS>ATOM
      1 BR        138.9020  144.7398  165.1836 Br      1  UNL1       -0.0489
      2 C         138.5647  143.7898  164.0729 C.ar    1  UNL1        0.0360
      3 C         137.7643  142.5541  164.3600 C.ar    1  UNL1        0.0068
      4 C         137.4270  141.6041  163.2493 C.ar    1  UNL1        0.0021
      5 C         137.8900  141.8898  161.8515 C.ar    1  UNL1        0.0192
      6 C         138.6904  143.1255  161.5644 C.ar    1  UNL1        0.0824
      7 N         139.1534  143.4113  160.1665 N.ar    1  UNL1       -0.2371
      8 C         139.9537  144.6470  159.8794 C.ar    1  UNL1        0.1228
      9 C         140.2910  145.5970  160.9901 C.ar    1  UNL1        0.0276
     10 C         139.8280  145.3113  162.3879 C.ar    1  UNL1        0.0042
     11 C         139.0277  144.0755  162.6751 C.ar    1  UNL1        0.0240
     12 C         140.4168  144.9327  158.4815 C.1     1  UNL1       -0.0390
     13 C         140.8798  145.2185  157.0837 C.1     1  UNL1       -0.0390
     14 C         141.3428  145.5043  155.6859 C.ar    1  UNL1        0.1229
     15 C         140.5350  146.4031  154.7972 C.ar    1  UNL1        0.0276
     16 C         140.9980  146.6889  153.3994 C.ar    1  UNL1        0.0038
     17 C         142.2689  146.0760  152.8902 C.ar    1  UNL1        0.0207
     18 C         143.0767  145.1773  153.7789 C.ar    1  UNL1        0.0996
     19 N         142.6137  144.8914  155.1767 N.ar    1  UNL1       -0.2356
@<TRIPOS>BOND
     1     1     2    1
     2     2     3   ar
     3     3     4   ar
     4     4     5   ar
     5     5     6   ar
     6     6     7   ar
     7     7     8   ar
     8     8    12    1
     9    12    13    3
    10    13    14    1
    11    14    15   ar
    12    15    16   ar
    13    16    17   ar
    14    17    18   ar
    15    18    19   ar
    16     8     9   ar
    17     9    10   ar
    18    10    11   ar
    19    11     2   ar
    20    11     6   ar
    21    19    14   ar
@<TRIPOS>MOLECULE
*****
 19 21 0 0 0
SMALL
GASTEIGER

@<TRIPOS>ATOM
      1 BR        142.9424  139.8803  170.5305 Br      1  UNL1       -0.0489
      2 C         141.6446  139.9451  169.7811 C.ar    1  UNL1        0.0360
      3 C         140.3710  140.2507  170.5121 C.ar    1  UNL1        0.0068
      4 C         139.0731  140.3154  169.7628 C.ar    1  UNL1        0.0021
      5 C         139.0490  140.0746  168.2825 C.ar    1  UNL1        0.0192
      6 C         140.3226  139.7690  167.5515 C.ar    1  UNL1        0.0824
      7 N         140.2985  139.5281  166.0711 N.ar    1  UNL1       -0.2371
      8 C         141.5721  139.2225  165.3401 C.ar    1  UNL1        0.1228
      9 C         142.8699  139.1577  166.0895 C.ar    1  UNL1        0.0276
     10 C         142.8941  139.3986  167.5698 C.ar    1  UNL1        0.0042
     11 C         141.6204  139.7042  168.3008 C.ar    1  UNL1        0.0240
     12 C         141.5480  138.9816  163.8597 C.1     1  UNL1       -0.0390
     13 C         141.5239  138.7408  162.3794 C.1     1  UNL1       -0.0390
     14 C         141.4998  138.4999  160.8991 C.ar    1  UNL1        0.1229
     15 C         140.2624  138.8079  160.1092 C.ar    1  UNL1        0.0276
     16 C         140.2383  138.5671  158.6289 C.ar    1  UNL1        0.0038
     17 C         141.4516  138.0183  157.9384 C.ar    1  UNL1        0.0207
     18 C         142.6889  137.7103  158.7283 C.ar    1  UNL1        0.0996
     19 N         142.7131  137.9511  160.2087 N.ar    1  UNL1       -0.2356
@<TRIPOS>BOND
     1     1     2    1
     2     2     3   ar
     3     3     4   ar
     4     4     5   ar
     5     5     6   ar
     6     6     7   ar
     7     7     8   ar
     8     8    12    1
     9    12    13    3
    10    13    14    1
    11    14    15   ar
    12    15    16   ar
    13    16    17   ar
    14    17    18   ar
    15    18    19   ar
    16     8     9   ar
    17     9    10   ar
    18    10    11   ar
    19    11     2   ar
    20    11     6   ar
    21    19    14   ar
@<TRIPOS>MOLECULE
*****
 19 21 0 0 0
SMALL
GASTEIGER

@<TRIPOS>ATOM
      1 BR        137.7229  138.3661  166.9649 Br      1  UNL1       -0.0489
      2 C         138.6741  139.5219  167.0613 C.ar    1  UNL1        0.0360
      3 C         139.2585  139.9035  168.3890 C.ar    1  UNL1        0.0068
      4 C         140.2097  141.0593  168.4854 C.ar    1  UNL1        0.0021
      5 C         140.5766  141.8334  167.2541 C.ar    1  UNL1        0.0192
      6 C         139.9923  141.4518  165.9264 C.ar    1  UNL1        0.0824
      7 N         140.3592  142.2259  164.6950 N.ar    1  UNL1       -0.2371
      8 C         139.7748  141.8442  163.3673 C.ar    1  UNL1        0.1228
      9 C         138.8236  140.6884  163.2709 C.ar    1  UNL1        0.0276
     10 C         138.4567  139.9143  164.5022 C.ar    1  UNL1        0.0042
     11 C         139.0410  140.2960  165.8300 C.ar    1  UNL1        0.0240
     12 C         140.1417  142.6183  162.1360 C.1     1  UNL1       -0.0390
     13 C         140.5086  143.3924  160.9046 C.1     1  UNL1       -0.0390
     14 C         140.8754  144.1664  159.6733 C.ar    1  UNL1        0.1229
     15 C         142.1703  143.8867  158.9696 C.ar    1  UNL1        0.0276
     16 C         142.5372  144.6608  157.7383 C.ar    1  UNL1        0.0038
     17 C         141.6092  145.7145  157.2106 C.ar    1  UNL1        0.0207
     18 C         140.3143  145.9942  157.9142 C.ar    1  UNL1        0.0996
     19 N         139.9474  145.2201  159.1456 N.ar    1  UNL1       -0.2356
@<TRIPOS>BOND
     1     1     2    1
     2     2     3   ar
     3     3     4   ar
     4     4     5   ar
     5     5     6   ar
     6     6     7   ar
     7     7     8   ar
     8     8    12    1
     9    12    13    3
    10    13    14    1
    11    14    15   ar
    12    15    16   ar
    13    16    17   ar
    14    17    18   ar
    15    18    19   ar
    16     8     9   ar
    17     9    10   ar
    18    10    11   ar
    19    11     2   ar
    20    11     6   ar
    21    19    14   ar
@<TRIPOS>MOLECULE
*****
 19 21 0 0 0
SMALL
GASTEIGER

@<TRIPOS>ATOM
      1 BR        143.2669  141.5962  169.7614 Br      1  UNL1       -0.0489
      2 C         142.1125  141.2734  168.8596 C.ar    1  UNL1        0.0360
      3 C         140.9299  140.5220  169.3950 C.ar    1  UNL1        0.0068
      4 C         139.7755  140.1992  168.4932 C.ar    1  UNL1        0.0021
      5 C         139.8037  140.6279  167.0561 C.ar    1  UNL1        0.0192
      6 C         140.9864  141.3793  166.5207 C.ar    1  UNL1        0.0824
      7 N         141.0147  141.8080  165.0835 N.ar    1  UNL1       -0.2371
      8 C         142.1973  142.5595  164.5482 C.ar    1  UNL1        0.1228
      9 C         143.3517  142.8822  165.4499 C.ar    1  UNL1        0.0276
     10 C         143.3235  142.4536  166.8871 C.ar    1  UNL1        0.0042
     11 C         142.1408  141.7021  167.4225 C.ar    1  UNL1        0.0240
     12 C         142.2256  142.9882  163.1110 C.1     1  UNL1       -0.0390
     13 C         142.2539  143.4169  161.6738 C.1     1  UNL1       -0.0390
     14 C         142.2821  143.8456  160.2367 C.ar    1  UNL1        0.1229
     15 C         143.0177  143.0209  159.2223 C.ar    1  UNL1        0.0276
     16 C         143.0460  143.4497  157.7852 C.ar    1  UNL1        0.0038
     17 C         142.3387  144.7030  157.3624 C.ar    1  UNL1        0.0207
     18 C         141.6031  145.5277  158.3767 C.ar    1  UNL1        0.0996
     19 N         141.5748  145.0990  159.8139 N.ar    1  UNL1       -0.2356
@<TRIPOS>BOND
     1     1     2    1
     2     2     3   ar
     3     3     4   ar
     4     4     5   ar
     5     5     6   ar
     6     6     7   ar
     7     7     8   ar
     8     8    12    1
     9    12    13    3
    10    13    14    1
    11    14    15   ar
    12    15    16   ar
    13    16    17   ar
    14    17    18   ar
    15    18    19   ar
    16     8     9   ar
    17     9    10   ar
    18    10    11   ar
    19    11     2   ar
    20    11     6   ar
    21    19    14   ar
@<TRIPOS>MOLECULE
*****
 19 21 0 0 0
SMALL
GASTEIGER

@<TRIPOS>ATOM
      1 BR        142.3279  142.3433  165.3022 Br      1  UNL1       -0.0489
      2 C         141.1159  143.1479  164.9367 C.ar    1  UNL1        0.0360
      3 C         140.0502  143.4057  165.9603 C.ar    1  UNL1        0.0068
      4 C         138.8382  144.2103  165.5948 C.ar    1  UNL1        0.0021
      5 C         138.6919  144.7571  164.2057 C.ar    1  UNL1        0.0192
      6 C         139.7576  144.4994  163.1821 C.ar    1  UNL1        0.0824
      7 N         139.6114  145.0462  161.7930 N.ar    1  UNL1       -0.2371
      8 C         140.6771  144.7884  160.7694 C.ar    1  UNL1        0.1228
      9 C         141.8891  143.9838  161.1350 C.ar    1  UNL1        0.0276
     10 C         142.0354  143.4370  162.5240 C.ar    1  UNL1        0.0042
     11 C         140.9696  143.6947  163.5477 C.ar    1  UNL1        0.0240
     12 C         140.5308  145.3352  159.3803 C.1     1  UNL1       -0.0390
     13 C         140.3846  145.8820  157.9912 C.1     1  UNL1       -0.0390
     14 C         140.2383  146.4288  156.6021 C.ar    1  UNL1        0.1229
     15 C         139.2250  147.4982  156.3198 C.ar    1  UNL1        0.0276
     16 C         139.0787  148.0449  154.9307 C.ar    1  UNL1        0.0038
     17 C         139.9458  147.5223  153.8239 C.ar    1  UNL1        0.0207
     18 C         140.9591  146.4530  154.1061 C.ar    1  UNL1        0.0996
     19 N         141.1054  145.9062  155.4953 N.ar    1  UNL1       -0.2356
@<TRIPOS>BOND
     1     1     2    1
     2     2     3   ar
     3     3     4   ar
     4     4     5   ar
     5     5     6   ar
     6     6     7   ar
     7     7     8   ar
     8     8    12    1
     9    12    13    3
    10    13    14    1
    11    14    15   ar
    12    15    16   ar
    13    16    17   ar
    14    17    18   ar
    15    18    19   ar
    16     8     9   ar
    17     9    10   ar
    18    10    11   ar
    19    11     2   ar
    20    11     6   ar
    21    19    14   ar
@<TRIPOS>MOLECULE
*****
 19 21 0 0 0
SMALL
GASTEIGER

@<TRIPOS>ATOM
      1 BR        139.9781  141.8749  169.9627 Br      1  UNL1       -0.0489
      2 C         140.9040  141.1354  169.0430 C.ar    1  UNL1        0.0360
      3 C         141.6553  139.9362  169.5404 C.ar    1  UNL1        0.0068
      4 C         142.5812  139.1967  168.6207 C.ar    1  UNL1        0.0021
      5 C         142.7558  139.6564  167.2036 C.ar    1  UNL1        0.0192
      6 C         142.0045  140.8556  166.7062 C.ar    1  UNL1        0.0824
      7 N         142.1791  141.3153  165.2891 N.ar    1  UNL1       -0.2371
      8 C         141.4278  142.5145  164.7917 C.ar    1  UNL1        0.1228
      9 C         140.5019  143.2540  165.7114 C.ar    1  UNL1        0.0276
     10 C         140.3273  142.7944  167.1285 C.ar    1  UNL1        0.0042
     11 C         141.0786  141.5951  167.6259 C.ar    1  UNL1        0.0240
     12 C         141.6023  142.9742  163.3745 C.1     1  UNL1       -0.0390
     13 C         141.7769  143.4340  161.9575 C.1     1  UNL1       -0.0390
     14 C         141.9515  143.8938  160.5404 C.ar    1  UNL1        0.1229
     15 C         141.1614  145.0613  160.0280 C.ar    1  UNL1        0.0276
     16 C         141.3359  145.5211  158.6109 C.ar    1  UNL1        0.0038
     17 C         142.3006  144.8133  157.7062 C.ar    1  UNL1        0.0207
     18 C         143.0907  143.6458  158.2186 C.ar    1  UNL1        0.0996
     19 N         142.9162  143.1860  159.6357 N.ar    1  UNL1       -0.2356
@<TRIPOS>BOND
     1     1     2    1
     2     2     3   ar
     3     3     4   ar
     4     4     5   ar
     5     5     6   ar
     6     6     7   ar
     7     7     8   ar
     8     8    12    1
     9    12    13    3
    10    13    14    1
    11    14    15   ar
    12    15    16   ar
    13    16    17   ar
    14    17    18   ar
    15    18    19   ar
    16     8     9   ar
    17     9    10   ar
    18    10    11   ar
    19    11     2   ar
    20    11     6   ar
    21    19    14   ar
