@<TRIPOS>MOLECULE
*****
 31 35 0 0 0
SMALL
GASTEIGER

@<TRIPOS>ATOM
      1 C         140.6534  142.8537  163.7390 C.ar    1  UNL1       -0.0038
      2 C         141.2235  143.4142  165.0082 C.ar    1  UNL1        0.0715
      3 N         141.0886  142.3707  166.0773 N.ar    1  UNL1       -0.3282
      4 C         140.4352  141.1654  165.4689 C.ar    1  UNL1        0.0596
      5 C         140.0503  139.8346  166.0441 C.ar    1  UNL1        0.0180
      6 C         139.3965  138.8024  165.1741 C.ar    1  UNL1        0.0129
      7 C         139.1275  139.1009  163.7289 C.ar    1  UNL1        0.0578
      8 CL        138.4736  138.0686  162.8589 Cl      1  UNL1       -0.0822
      9 C         139.5123  140.4317  163.1537 C.ar    1  UNL1        0.0126
     10 C         140.1662  141.4639  164.0237 C.ar    1  UNL1        0.0141
     11 N         140.4418  144.9703  159.7735 N.3     1  UNL1       -0.2712
     12 C         140.0171  145.6790  161.0254 C.3     1  UNL1        0.0725
     13 C         140.0876  144.9735  162.3473 C.3     1  UNL1        0.0218
     14 C         140.5829  143.5592  162.4172 C.3     1  UNL1        0.0266
     15 C         141.0075  142.8507  161.1652 C.3     1  UNL1        0.0218
     16 C         140.9370  143.5562  159.8434 C.3     1  UNL1        0.0725
     17 C         140.3713  145.6758  158.4516 C.3     1  UNL1        0.0939
     18 C         140.3483  144.8829  157.1786 C.3     1  UNL1        0.1123
     19 O         139.4219  147.6417  155.7021 O.2     1  UNL1       -0.2526
     20 C         138.7745  146.2977  155.5457 C.2     1  UNL1        0.3041
     21 N         137.5876  145.9858  154.6831 N.am    1  UNL1       -0.2870
     22 C         137.2799  144.5250  154.8286 C.3     1  UNL1        0.1124
     23 C         138.2766  143.9340  155.7811 C.3     1  UNL1        0.1162
     24 N         139.2003  145.0296  156.2243 N.am    1  UNL1       -0.2610
     25 H         137.0968  146.6273  154.1203 H       1  UNL1        0.1510
     26 C         141.5298  142.5084  167.5044 C.3     1  UNL1        0.0855
     27 C         140.5698  143.0128  168.5408 C.3     1  UNL1        0.0226
     28 C         141.0109  143.1505  169.9679 C.3     1  UNL1        0.0019
     29 C         142.4119  142.7837  170.3585 C.3     1  UNL1        0.0001
     30 C         143.3718  142.2793  169.3221 C.3     1  UNL1        0.0019
     31 C         142.9307  142.1416  167.8951 C.3     1  UNL1        0.0226
@<TRIPOS>BOND
     1    19    20    2
     2    20    21   am
     3    21    22    1
     4    22    23    1
     5    23    24    1
     6    24    18    1
     7    18    17    1
     8    17    11    1
     9    11    12    1
    10    12    13    1
    11    13    14    1
    12    14     1    1
    13     1     2   ar
    14     2     3   ar
    15     3    26    1
    16    26    27    1
    17    27    28    1
    18    28    29    1
    19    29    30    1
    20    30    31    1
    21     3     4   ar
    22     4     5   ar
    23     5     6   ar
    24     6     7   ar
    25     7     8    1
    26     7     9   ar
    27     9    10   ar
    28    14    15    1
    29    15    16    1
    30    24    20   am
    31    16    11    1
    32    10     1   ar
    33    31    26    1
    34    10     4   ar
    35    21    25    1
@<TRIPOS>MOLECULE
*****
 31 35 0 0 0
SMALL
GASTEIGER

@<TRIPOS>ATOM
      1 C         140.9840  142.4044  162.6753 C.ar    1  UNL1       -0.0038
      2 C         139.9798  141.3212  162.9367 C.ar    1  UNL1        0.0715
      3 N         140.2749  140.7310  164.2837 N.ar    1  UNL1       -0.3282
      4 C         141.4614  141.4493  164.8548 C.ar    1  UNL1        0.0596
      5 C         142.1993  141.2953  166.1516 C.ar    1  UNL1        0.0180
      6 C         143.3755  142.1755  166.4543 C.ar    1  UNL1        0.0129
      7 C         143.8138  143.2098  165.4603 C.ar    1  UNL1        0.0578
      8 CL        144.9901  144.0901  165.7630 Cl      1  UNL1       -0.0822
      9 C         143.0759  143.3638  164.1635 C.ar    1  UNL1        0.0126
     10 C         141.8997  142.4836  163.8608 C.ar    1  UNL1        0.0141
     11 N         141.2099  144.9669  158.9830 N.3     1  UNL1       -0.2712
     12 C         140.4216  145.4318  160.1714 C.3     1  UNL1        0.0725
     13 C         140.3463  144.5777  161.4022 C.3     1  UNL1        0.0218
     14 C         141.0593  143.2586  161.4445 C.3     1  UNL1        0.0266
     15 C         141.8476  142.7938  160.2561 C.3     1  UNL1        0.0218
     16 C         141.9229  143.6479  159.0253 C.3     1  UNL1        0.0725
     17 C         141.2853  145.8210  157.7522 C.3     1  UNL1        0.0939
     18 C         141.0199  145.2191  156.4042 C.3     1  UNL1        0.1123
     19 O         139.6452  147.8630  155.0742 O.2     1  UNL1       -0.2526
     20 C         139.0138  146.5079  155.1961 C.2     1  UNL1        0.3041
     21 N         137.6397  146.1301  154.7280 N.am    1  UNL1       -0.2870
     22 C         137.4223  144.6814  155.0501 C.3     1  UNL1        0.1124
     23 C         138.6621  144.1637  155.7172 C.3     1  UNL1        0.1162
     24 N         139.6457  145.2926  155.8074 N.am    1  UNL1       -0.2610
     25 H         136.9939  146.7280  154.2869 H       1  UNL1        0.1510
     26 C         139.5166  139.6177  164.9438 C.3     1  UNL1        0.0855
     27 C         138.6735  139.8980  166.1524 C.3     1  UNL1        0.0226
     28 C         137.9152  138.7848  166.8125 C.3     1  UNL1        0.0019
     29 C         137.9999  137.3913  166.2640 C.3     1  UNL1        0.0001
     30 C         138.8430  137.1110  165.0554 C.3     1  UNL1        0.0019
     31 C         139.6013  138.2242  164.3953 C.3     1  UNL1        0.0226
@<TRIPOS>BOND
     1    19    20    2
     2    20    21   am
     3    21    22    1
     4    22    23    1
     5    23    24    1
     6    24    18    1
     7    18    17    1
     8    17    11    1
     9    11    12    1
    10    12    13    1
    11    13    14    1
    12    14     1    1
    13     1     2   ar
    14     2     3   ar
    15     3    26    1
    16    26    27    1
    17    27    28    1
    18    28    29    1
    19    29    30    1
    20    30    31    1
    21     3     4   ar
    22     4     5   ar
    23     5     6   ar
    24     6     7   ar
    25     7     8    1
    26     7     9   ar
    27     9    10   ar
    28    14    15    1
    29    15    16    1
    30    24    20   am
    31    16    11    1
    32    10     1   ar
    33    31    26    1
    34    10     4   ar
    35    21    25    1
@<TRIPOS>MOLECULE
*****
 31 35 0 0 0
SMALL
GASTEIGER

@<TRIPOS>ATOM
      1 C         141.7794  140.7665  163.6166 C.ar    1  UNL1       -0.0038
      2 C         142.4696  140.3209  164.8716 C.ar    1  UNL1        0.0715
      3 N         141.9472  141.1500  166.0072 N.ar    1  UNL1       -0.3282
      4 C         140.9341  142.1079  165.4542 C.ar    1  UNL1        0.0596
      5 C         140.0926  143.1654  166.1050 C.ar    1  UNL1        0.0180
      6 C         139.1474  143.9859  165.2784 C.ar    1  UNL1        0.0129
      7 C         139.0437  143.7489  163.8008 C.ar    1  UNL1        0.0578
      8 CL        138.0985  144.5695  162.9742 Cl      1  UNL1       -0.0822
      9 C         139.8852  142.6915  163.1500 C.ar    1  UNL1        0.0126
     10 C         140.8304  141.8710  163.9766 C.ar    1  UNL1        0.0141
     11 N         142.4398  139.0853  159.4950 N.3     1  UNL1       -0.2712
     12 C         143.5899  139.6713  160.2591 C.3     1  UNL1        0.0725
     13 C         143.3698  140.2317  161.6329 C.3     1  UNL1        0.0218
     14 C         141.9995  140.2061  162.2427 C.3     1  UNL1        0.0266
     15 C         140.8495  139.6201  161.4786 C.3     1  UNL1        0.0218
     16 C         141.0696  139.0597  160.1048 C.3     1  UNL1        0.0725
     17 C         142.6599  138.5249  158.1211 C.3     1  UNL1        0.0939
     18 C         142.7327  137.0403  157.9195 C.3     1  UNL1        0.1123
     19 O         144.9734  137.6957  155.6394 O.2     1  UNL1       -0.2526
     20 C         143.8001  136.7742  155.4834 C.2     1  UNL1        0.3041
     21 N         143.4508  135.9922  154.2520 N.am    1  UNL1       -0.2870
     22 C         142.2051  135.2076  154.5389 C.3     1  UNL1        0.1124
     23 C         141.7844  135.5048  155.9477 C.3     1  UNL1        0.1162
     24 N         142.7702  136.4729  156.5314 N.am    1  UNL1       -0.2610
     25 H         143.9514  135.9936  153.4042 H       1  UNL1        0.1510
     26 C         142.3645  141.0403  167.4438 C.3     1  UNL1        0.0855
     27 C         142.0985  139.7771  168.2078 C.3     1  UNL1        0.0226
     28 C         142.5159  139.6674  169.6444 C.3     1  UNL1        0.0019
     29 C         143.1993  140.8209  170.3170 C.3     1  UNL1        0.0001
     30 C         143.4652  142.0841  169.5531 C.3     1  UNL1        0.0019
     31 C         143.0479  142.1937  168.1165 C.3     1  UNL1        0.0226
@<TRIPOS>BOND
     1    19    20    2
     2    20    21   am
     3    21    22    1
     4    22    23    1
     5    23    24    1
     6    24    18    1
     7    18    17    1
     8    17    11    1
     9    11    12    1
    10    12    13    1
    11    13    14    1
    12    14     1    1
    13     1     2   ar
    14     2     3   ar
    15     3    26    1
    16    26    27    1
    17    27    28    1
    18    28    29    1
    19    29    30    1
    20    30    31    1
    21     3     4   ar
    22     4     5   ar
    23     5     6   ar
    24     6     7   ar
    25     7     8    1
    26     7     9   ar
    27     9    10   ar
    28    14    15    1
    29    15    16    1
    30    24    20   am
    31    16    11    1
    32    10     1   ar
    33    31    26    1
    34    10     4   ar
    35    21    25    1
@<TRIPOS>MOLECULE
*****
 31 35 0 0 0
SMALL
GASTEIGER

@<TRIPOS>ATOM
      1 C         141.7025  142.0025  163.5529 C.ar    1  UNL1       -0.0038
      2 C         142.1125  142.7211  164.8041 C.ar    1  UNL1        0.0715
      3 N         141.5492  141.9714  165.9748 N.ar    1  UNL1       -0.3282
      4 C         140.7910  140.7896  165.4472 C.ar    1  UNL1        0.0596
      5 C         140.0266  139.6984  166.1364 C.ar    1  UNL1        0.0180
      6 C         139.3570  138.6265  165.3288 C.ar    1  UNL1        0.0129
      7 C         139.4517  138.6457  163.8319 C.ar    1  UNL1        0.0578
      8 CL        138.7819  137.5736  163.0242 Cl      1  UNL1       -0.0822
      9 C         140.2161  139.7368  163.1427 C.ar    1  UNL1        0.0126
     10 C         140.8857  140.8088  163.9504 C.ar    1  UNL1        0.0141
     11 N         142.7401  143.2150  159.3453 N.3     1  UNL1       -0.2712
     12 C         141.3343  143.3692  159.8452 C.3     1  UNL1        0.0725
     13 C         140.9884  142.9650  161.2477 C.3     1  UNL1        0.0218
     14 C         142.0484  142.4067  162.1504 C.3     1  UNL1        0.0266
     15 C         143.4541  142.2525  161.6505 C.3     1  UNL1        0.0218
     16 C         143.8001  142.6567  160.2480 C.3     1  UNL1        0.0725
     17 C         143.0861  143.6192  157.9428 C.3     1  UNL1        0.0939
     18 C         142.9865  142.6203  156.8283 C.3     1  UNL1        0.1123
     19 O         144.0980  139.8437  158.1337 O.2     1  UNL1       -0.2526
     20 C         144.7158  140.5883  156.9874 C.2     1  UNL1        0.3041
     21 N         145.9530  140.1874  156.2400 N.am    1  UNL1       -0.2870
     22 C         146.2066  141.2159  155.1780 C.3     1  UNL1        0.1124
     23 C         145.1262  142.2524  155.2691 C.3     1  UNL1        0.1162
     24 N         144.2049  141.8646  156.3873 N.am    1  UNL1       -0.2610
     25 H         146.5021  139.3894  156.4156 H       1  UNL1        0.1510
     26 C         141.7150  142.3391  167.4196 C.3     1  UNL1        0.0855
     27 C         143.0431  142.1558  168.0926 C.3     1  UNL1        0.0226
     28 C         143.2088  142.5235  169.5373 C.3     1  UNL1        0.0019
     29 C         142.0466  143.0744  170.3092 C.3     1  UNL1        0.0001
     30 C         140.7186  143.2576  169.6363 C.3     1  UNL1        0.0019
     31 C         140.5529  142.8899  168.1915 C.3     1  UNL1        0.0226
@<TRIPOS>BOND
     1    19    20    2
     2    20    21   am
     3    21    22    1
     4    22    23    1
     5    23    24    1
     6    24    18    1
     7    18    17    1
     8    17    11    1
     9    11    12    1
    10    12    13    1
    11    13    14    1
    12    14     1    1
    13     1     2   ar
    14     2     3   ar
    15     3    26    1
    16    26    27    1
    17    27    28    1
    18    28    29    1
    19    29    30    1
    20    30    31    1
    21     3     4   ar
    22     4     5   ar
    23     5     6   ar
    24     6     7   ar
    25     7     8    1
    26     7     9   ar
    27     9    10   ar
    28    14    15    1
    29    15    16    1
    30    24    20   am
    31    16    11    1
    32    10     1   ar
    33    31    26    1
    34    10     4   ar
    35    21    25    1
@<TRIPOS>MOLECULE
*****
 31 35 0 0 0
SMALL
GASTEIGER

@<TRIPOS>ATOM
      1 C         144.9018  142.1712  158.4237 C.ar    1  UNL1       -0.0038
      2 C         146.0679  142.7977  157.7182 C.ar    1  UNL1        0.0715
      3 N         146.3408  142.0013  156.4767 N.ar    1  UNL1       -0.3282
      4 C         145.3434  140.8826  156.4149 C.ar    1  UNL1        0.0596
      5 C         145.1302  139.7819  155.4184 C.ar    1  UNL1        0.0180
      6 C         144.0275  138.7863  155.6253 C.ar    1  UNL1        0.0129
      7 C         143.1382  138.8913  156.8286 C.ar    1  UNL1        0.0578
      8 CL        142.0355  137.8956  157.0354 Cl      1  UNL1       -0.0822
      9 C         143.3514  139.9920  157.8251 C.ar    1  UNL1        0.0126
     10 C         144.4541  140.9876  157.6182 C.ar    1  UNL1        0.0141
     11 N         143.0685  143.5928  162.2796 N.3     1  UNL1       -0.2712
     12 C         142.3091  143.7287  160.9932 C.3     1  UNL1        0.0725
     13 C         142.9202  143.2548  159.7079 C.3     1  UNL1        0.0218
     14 C         144.2908  142.6450  159.7090 C.3     1  UNL1        0.0266
     15 C         145.0500  142.5091  160.9954 C.3     1  UNL1        0.0218
     16 C         144.4389  142.9830  162.2807 C.3     1  UNL1        0.0725
     17 C         142.4574  144.0666  163.5649 C.3     1  UNL1        0.0939
     18 C         141.3930  145.1233  163.5446 C.3     1  UNL1        0.1123
     19 O         139.3181  146.2958  161.3154 O.2     1  UNL1       -0.2526
     20 C         138.9989  145.2730  162.3651 C.2     1  UNL1        0.3041
     21 N         137.6701  144.6095  162.5746 N.am    1  UNL1       -0.2870
     22 C         137.8025  143.6606  163.7286 C.3     1  UNL1        0.1124
     23 C         139.2132  143.7376  164.2324 C.3     1  UNL1        0.1162
     24 N         139.9526  144.7340  163.3898 N.am    1  UNL1       -0.2610
     25 H         136.8542  144.7689  162.0471 H       1  UNL1        0.1510
     26 C         147.4215  142.2754  155.4731 C.3     1  UNL1        0.0855
     27 C         148.7793  141.6619  155.6466 C.3     1  UNL1        0.0226
     28 C         149.8599  141.9360  154.6430 C.3     1  UNL1        0.0019
     29 C         149.5828  142.8236  153.4660 C.3     1  UNL1        0.0001
     30 C         148.2250  143.4371  153.2926 C.3     1  UNL1        0.0019
     31 C         147.1444  143.1629  154.2961 C.3     1  UNL1        0.0226
@<TRIPOS>BOND
     1    19    20    2
     2    20    21   am
     3    21    22    1
     4    22    23    1
     5    23    24    1
     6    24    18    1
     7    18    17    1
     8    17    11    1
     9    11    12    1
    10    12    13    1
    11    13    14    1
    12    14     1    1
    13     1     2   ar
    14     2     3   ar
    15     3    26    1
    16    26    27    1
    17    27    28    1
    18    28    29    1
    19    29    30    1
    20    30    31    1
    21     3     4   ar
    22     4     5   ar
    23     5     6   ar
    24     6     7   ar
    25     7     8    1
    26     7     9   ar
    27     9    10   ar
    28    14    15    1
    29    15    16    1
    30    24    20   am
    31    16    11    1
    32    10     1   ar
    33    31    26    1
    34    10     4   ar
    35    21    25    1
@<TRIPOS>MOLECULE
*****
 31 35 0 0 0
SMALL
GASTEIGER

@<TRIPOS>ATOM
      1 C         141.8657  140.7583  163.5923 C.ar    1  UNL1       -0.0038
      2 C         142.5438  140.3177  164.8556 C.ar    1  UNL1        0.0715
      3 N         141.9753  141.1177  165.9901 N.ar    1  UNL1       -0.3282
      4 C         140.9458  142.0526  165.4279 C.ar    1  UNL1        0.0596
      5 C         140.0614  143.0774  166.0739 C.ar    1  UNL1        0.0180
      6 C         139.1092  143.8802  165.2379 C.ar    1  UNL1        0.0129
      7 C         139.0414  143.6581  163.7560 C.ar    1  UNL1        0.0578
      8 CL        138.0891  144.4610  162.9201 Cl      1  UNL1       -0.0822
      9 C         139.9259  142.6333  163.1100 C.ar    1  UNL1        0.0126
     10 C         140.8781  141.8305  163.9459 C.ar    1  UNL1        0.0141
     11 N         142.6555  139.1466  159.4657 N.3     1  UNL1       -0.2712
     12 C         142.9511  140.5834  159.7789 C.3     1  UNL1        0.0725
     13 C         142.6879  141.1207  161.1545 C.3     1  UNL1        0.0218
     14 C         142.1290  140.2211  162.2168 C.3     1  UNL1        0.0266
     15 C         141.8334  138.7843  161.9035 C.3     1  UNL1        0.0218
     16 C         142.0966  138.2471  160.5279 C.3     1  UNL1        0.0725
     17 C         142.9187  138.6094  158.0902 C.3     1  UNL1        0.0939
     18 C         142.0897  139.0771  156.9309 C.3     1  UNL1        0.1123
     19 O         139.3261  138.1743  158.4130 O.2     1  UNL1       -0.2526
     20 C         139.7621  137.7671  157.0367 C.2     1  UNL1        0.3041
     21 N         139.0045  136.8734  156.1001 N.am    1  UNL1       -0.2870
     22 C         139.8065  136.7361  154.8401 C.3     1  UNL1        0.1124
     23 C         141.0598  137.5449  154.9979 C.3     1  UNL1        0.1162
     24 N         141.0324  138.1821  156.3555 N.am    1  UNL1       -0.2610
     25 H         138.1337  136.4511  156.2807 H       1  UNL1        0.1510
     26 C         142.3674  141.0028  167.4333 C.3     1  UNL1        0.0855
     27 C         143.0131  142.1639  168.1298 C.3     1  UNL1        0.0226
     28 C         143.4052  142.0491  169.5731 C.3     1  UNL1        0.0019
     29 C         143.1517  140.7732  170.3200 C.3     1  UNL1        0.0001
     30 C         142.5060  139.6121  169.6235 C.3     1  UNL1        0.0019
     31 C         142.1139  139.7270  168.1802 C.3     1  UNL1        0.0226
@<TRIPOS>BOND
     1    19    20    2
     2    20    21   am
     3    21    22    1
     4    22    23    1
     5    23    24    1
     6    24    18    1
     7    18    17    1
     8    17    11    1
     9    11    12    1
    10    12    13    1
    11    13    14    1
    12    14     1    1
    13     1     2   ar
    14     2     3   ar
    15     3    26    1
    16    26    27    1
    17    27    28    1
    18    28    29    1
    19    29    30    1
    20    30    31    1
    21     3     4   ar
    22     4     5   ar
    23     5     6   ar
    24     6     7   ar
    25     7     8    1
    26     7     9   ar
    27     9    10   ar
    28    14    15    1
    29    15    16    1
    30    24    20   am
    31    16    11    1
    32    10     1   ar
    33    31    26    1
    34    10     4   ar
    35    21    25    1
@<TRIPOS>MOLECULE
*****
 31 35 0 0 0
SMALL
GASTEIGER

@<TRIPOS>ATOM
      1 C         140.2704  141.2994  163.2363 C.ar    1  UNL1       -0.0038
      2 C         139.5359  141.2546  164.5434 C.ar    1  UNL1        0.0715
      3 N         140.5326  141.4732  165.6428 N.ar    1  UNL1       -0.3282
      4 C         141.8831  141.6531  165.0153 C.ar    1  UNL1        0.0596
      5 C         143.2394  141.9008  165.6060 C.ar    1  UNL1        0.0180
      6 C         144.4337  142.0412  164.7094 C.ar    1  UNL1        0.0129
      7 C         144.2716  141.9337  163.2220 C.ar    1  UNL1        0.0578
      8 CL        145.4660  142.0741  162.3254 Cl      1  UNL1       -0.0822
      9 C         142.9153  141.6860  162.6313 C.ar    1  UNL1        0.0126
     10 C         141.7211  141.5457  163.5279 C.ar    1  UNL1        0.0141
     11 N         138.4430  140.7853  159.1563 N.3     1  UNL1       -0.2712
     12 C         138.8240  142.1529  159.6405 C.3     1  UNL1        0.0725
     13 C         139.4332  142.3243  161.0005 C.3     1  UNL1        0.0218
     14 C         139.6613  141.1280  161.8763 C.3     1  UNL1        0.0266
     15 C         139.2803  139.7605  161.3921 C.3     1  UNL1        0.0218
     16 C         138.6711  139.5891  160.0321 C.3     1  UNL1        0.0725
     17 C         137.8339  140.6139  157.7963 C.3     1  UNL1        0.0939
     18 C         137.0576  141.7371  157.1752 C.3     1  UNL1        0.1123
     19 O         134.4464  139.7855  157.3233 O.2     1  UNL1       -0.2526
     20 C         134.9008  140.5605  156.1221 C.2     1  UNL1        0.3041
     21 N         134.2349  140.5746  154.7781 N.am    1  UNL1       -0.2870
     22 C         135.0235  141.4803  153.8795 C.3     1  UNL1        0.1124
     23 C         136.1769  142.0260  154.6680 C.3     1  UNL1        0.1162
     24 N         136.1011  141.4576  156.0540 N.am    1  UNL1       -0.2610
     25 H         133.4227  140.0768  154.5295 H       1  UNL1        0.1510
     26 C         140.2317  141.5061  167.1120 C.3     1  UNL1        0.0855
     27 C         140.5199  142.7438  167.9091 C.3     1  UNL1        0.0226
     28 C         140.2189  142.7767  169.3782 C.3     1  UNL1        0.0019
     29 C         139.6298  141.5720  170.0503 C.3     1  UNL1        0.0001
     30 C         139.3417  140.3344  169.2533 C.3     1  UNL1        0.0019
     31 C         139.6426  140.3015  167.7841 C.3     1  UNL1        0.0226
@<TRIPOS>BOND
     1    19    20    2
     2    20    21   am
     3    21    22    1
     4    22    23    1
     5    23    24    1
     6    24    18    1
     7    18    17    1
     8    17    11    1
     9    11    12    1
    10    12    13    1
    11    13    14    1
    12    14     1    1
    13     1     2   ar
    14     2     3   ar
    15     3    26    1
    16    26    27    1
    17    27    28    1
    18    28    29    1
    19    29    30    1
    20    30    31    1
    21     3     4   ar
    22     4     5   ar
    23     5     6   ar
    24     6     7   ar
    25     7     8    1
    26     7     9   ar
    27     9    10   ar
    28    14    15    1
    29    15    16    1
    30    24    20   am
    31    16    11    1
    32    10     1   ar
    33    31    26    1
    34    10     4   ar
    35    21    25    1
@<TRIPOS>MOLECULE
*****
 31 35 0 0 0
SMALL
GASTEIGER

@<TRIPOS>ATOM
      1 C         140.5036  142.6140  163.7462 C.ar    1  UNL1       -0.0038
      2 C         141.0470  143.2633  164.9843 C.ar    1  UNL1        0.0715
      3 N         141.0147  142.2510  166.0908 N.ar    1  UNL1       -0.3282
      4 C         140.4514  140.9761  165.5364 C.ar    1  UNL1        0.0596
      5 C         140.1852  139.6400  166.1639 C.ar    1  UNL1        0.0180
      6 C         139.6032  138.5282  165.3424 C.ar    1  UNL1        0.0129
      7 C         139.2872  138.7525  163.8933 C.ar    1  UNL1        0.0578
      8 CL        138.7052  137.6406  163.0717 Cl      1  UNL1       -0.0822
      9 C         139.5534  140.0887  163.2658 C.ar    1  UNL1        0.0126
     10 C         140.1354  141.2005  164.0873 C.ar    1  UNL1        0.0141
     11 N         140.0562  144.5644  159.7155 N.3     1  UNL1       -0.2712
     12 C         140.8425  145.2464  160.7955 C.3     1  UNL1        0.0725
     13 C         140.9917  144.5963  162.1391 C.3     1  UNL1        0.0218
     14 C         140.3544  143.2641  162.4026 C.3     1  UNL1        0.0266
     15 C         139.5681  142.5822  161.3226 C.3     1  UNL1        0.0218
     16 C         139.4189  143.2323  159.9790 C.3     1  UNL1        0.0725
     17 C         139.9070  145.2145  158.3719 C.3     1  UNL1        0.0939
     18 C         141.0963  145.8397  157.7051 C.3     1  UNL1        0.1123
     19 O         143.2844  143.7191  158.8733 O.2     1  UNL1       -0.2526
     20 C         143.0341  144.0199  157.4252 C.2     1  UNL1        0.3041
     21 N         143.7456  143.3987  156.2599 N.am    1  UNL1       -0.2870
     22 C         143.1796  143.9896  155.0028 C.3     1  UNL1        0.1124
     23 C         142.1183  144.9759  155.3911 C.3     1  UNL1        0.1162
     24 N         142.0283  144.9946  156.8882 N.am    1  UNL1       -0.2610
     25 H         144.4588  142.7221  156.3112 H       1  UNL1        0.1510
     26 C         141.4665  142.4744  167.5036 C.3     1  UNL1        0.0855
     27 C         142.8717  142.1349  167.9042 C.3     1  UNL1        0.0226
     28 C         143.3235  142.3582  169.3170 C.3     1  UNL1        0.0019
     29 C         142.3702  142.9210  170.3292 C.3     1  UNL1        0.0001
     30 C         140.9651  143.2605  169.9286 C.3     1  UNL1        0.0019
     31 C         140.5134  143.0371  168.5158 C.3     1  UNL1        0.0226
@<TRIPOS>BOND
     1    19    20    2
     2    20    21   am
     3    21    22    1
     4    22    23    1
     5    23    24    1
     6    24    18    1
     7    18    17    1
     8    17    11    1
     9    11    12    1
    10    12    13    1
    11    13    14    1
    12    14     1    1
    13     1     2   ar
    14     2     3   ar
    15     3    26    1
    16    26    27    1
    17    27    28    1
    18    28    29    1
    19    29    30    1
    20    30    31    1
    21     3     4   ar
    22     4     5   ar
    23     5     6   ar
    24     6     7   ar
    25     7     8    1
    26     7     9   ar
    27     9    10   ar
    28    14    15    1
    29    15    16    1
    30    24    20   am
    31    16    11    1
    32    10     1   ar
    33    31    26    1
    34    10     4   ar
    35    21    25    1
@<TRIPOS>MOLECULE
*****
 31 35 0 0 0
SMALL
GASTEIGER

@<TRIPOS>ATOM
      1 C         140.6387  140.0604  162.2592 C.ar    1  UNL1       -0.0038
      2 C         140.7835  138.8594  161.3723 C.ar    1  UNL1        0.0715
      3 N         140.9327  139.3418  159.9598 N.ar    1  UNL1       -0.3282
      4 C         140.8802  140.8408  159.9738 C.ar    1  UNL1        0.0596
      5 C         140.9743  141.8587  158.8761 C.ar    1  UNL1        0.0180
      6 C         140.8867  143.3207  159.1996 C.ar    1  UNL1        0.0129
      7 C         140.7050  143.7649  160.6207 C.ar    1  UNL1        0.0578
      8 CL        140.6174  145.2270  160.9442 Cl      1  UNL1       -0.0822
      9 C         140.6109  142.7470  161.7184 C.ar    1  UNL1        0.0126
     10 C         140.6984  141.2849  161.3950 C.ar    1  UNL1        0.0141
     11 N         140.1166  140.0003  166.7285 N.3     1  UNL1       -0.2712
     12 C         138.9737  140.4048  165.8453 C.3     1  UNL1        0.0725
     13 C         139.1477  140.4248  164.3555 C.3     1  UNL1        0.0218
     14 C         140.4647  140.0404  163.7490 C.3     1  UNL1        0.0266
     15 C         141.6075  139.6359  164.6322 C.3     1  UNL1        0.0218
     16 C         141.4335  139.6159  166.1220 C.3     1  UNL1        0.0725
     17 C         139.9426  139.9803  168.2182 C.3     1  UNL1        0.0939
     18 C         139.9425  141.2661  168.9907 C.3     1  UNL1        0.1123
     19 O         140.3710  142.1948  172.0896 O.2     1  UNL1       -0.2526
     20 C         141.4149  142.2091  171.0125 C.2     1  UNL1        0.3041
     21 N         142.8390  142.6528  171.1707 N.am    1  UNL1       -0.2870
     22 C         143.5221  142.5002  169.8441 C.3     1  UNL1        0.1124
     23 C         142.5203  141.9621  168.8660 C.3     1  UNL1        0.1162
     24 N         141.2180  141.7823  169.5881 N.am    1  UNL1       -0.2610
     25 H         143.2527  142.9857  171.9997 H       1  UNL1        0.1510
     26 C         141.1044  138.4769  158.7463 C.3     1  UNL1        0.0855
     27 C         142.4393  137.8619  158.4464 C.3     1  UNL1        0.0226
     28 C         142.6110  136.9970  157.2329 C.3     1  UNL1        0.0019
     29 C         141.4478  136.7472  156.3193 C.3     1  UNL1        0.0001
     30 C         140.1130  137.3622  156.6192 C.3     1  UNL1        0.0019
     31 C         139.9413  138.2270  157.8327 C.3     1  UNL1        0.0226
@<TRIPOS>BOND
     1    19    20    2
     2    20    21   am
     3    21    22    1
     4    22    23    1
     5    23    24    1
     6    24    18    1
     7    18    17    1
     8    17    11    1
     9    11    12    1
    10    12    13    1
    11    13    14    1
    12    14     1    1
    13     1     2   ar
    14     2     3   ar
    15     3    26    1
    16    26    27    1
    17    27    28    1
    18    28    29    1
    19    29    30    1
    20    30    31    1
    21     3     4   ar
    22     4     5   ar
    23     5     6   ar
    24     6     7   ar
    25     7     8    1
    26     7     9   ar
    27     9    10   ar
    28    14    15    1
    29    15    16    1
    30    24    20   am
    31    16    11    1
    32    10     1   ar
    33    31    26    1
    34    10     4   ar
    35    21    25    1
