@<TRIPOS>MOLECULE
*****
 31 35 0 0 0
SMALL
GASTEIGER

@<TRIPOS>ATOM
      1 C         140.3746  138.7874  163.7006 C.ar    1  UNL1        0.0291
      2 C         141.1175  139.6139  164.7081 C.ar    1  UNL1        0.0053
      3 C         140.5656  139.7836  166.0925 C.ar    1  UNL1        0.0352
      4 C         139.2708  139.1267  166.4694 C.ar    1  UNL1        0.0850
      5 C         138.5279  138.3002  165.4620 C.ar    1  UNL1        0.0488
      6 C         139.0798  138.1306  164.0776 C.ar    1  UNL1        0.1416
      7 F         138.3369  137.3040  163.0701 F       1  UNL1       -0.2041
      8 N         138.7189  139.2965  167.8539 N.ar    1  UNL1       -0.2422
      9 C         139.4619  140.1230  168.8613 C.ar    1  UNL1        0.1175
     10 C         140.7566  140.7798  168.4844 C.ar    1  UNL1        0.0989
     11 C         141.3085  140.6101  167.1000 C.ar    1  UNL1        0.0826
     12 N         142.5979  141.3721  167.0183 N.ar    1  UNL1       -0.2815
     13 C         142.8430  142.0128  168.3523 C.ar    1  UNL1        0.3316
     14 O         144.0195  142.8692  168.7163 O.2     1  UNL1       -0.2463
     15 N         141.7050  141.6467  169.2583 N.ar    1  UNL1       -0.2765
     16 C         141.5436  142.0728  170.6876 C.3     1  UNL1        0.1352
     17 C         142.0301  138.2783  159.5473 C.ar    1  UNL1        0.0888
     18 C         142.7812  137.7338  160.7260 C.ar    1  UNL1        0.0173
     19 C         142.2294  137.9035  162.1105 C.ar    1  UNL1        0.0029
     20 C         140.9265  138.6177  162.3162 C.ar    1  UNL1        0.0213
     21 C         140.1754  139.1621  161.1374 C.ar    1  UNL1        0.0986
     22 N         140.7272  138.9924  159.7530 N.ar    1  UNL1       -0.2457
     23 C         142.5819  138.1086  158.1628 C.3     1  UNL1        0.1876
     24 C         143.8088  140.3981  158.1070 C.3     1  UNL1        0.1747
     25 O         143.7328  138.9548  157.7053 O.3     1  UNL1       -0.3447
     26 C         143.4863  141.4754  165.8141 C.3     1  UNL1        0.0947
     27 C         144.1493  140.4903  164.8976 C.3     1  UNL1        0.0524
     28 C         144.7427  141.6215  164.1111 C.3     1  UNL1        0.1191
     29 C         144.0797  142.6066  165.0277 C.3     1  UNL1        0.0524
     30 O         145.6311  141.7247  162.9069 O.3     1  UNL1       -0.3534
     31 C         145.0469  142.0814  161.5723 C.3     1  UNL1        0.1740
@<TRIPOS>BOND
     1    24    25    1
     2    25    23    1
     3    23    17    1
     4    17    18   ar
     5    18    19   ar
     6    19    20   ar
     7    20     1    1
     8     1     2   ar
     9     2     3   ar
    10     3     4   ar
    11     4     5   ar
    12     5     6   ar
    13     6     7    1
    14     4     8   ar
    15     8     9   ar
    16     9    10   ar
    17    10    11   ar
    18    11    12   ar
    19    26    12    1
    20    26    27    1
    21    27    28    1
    22    28    30    1
    23    30    31    1
    24    28    29    1
    25    12    13   ar
    26    13    14    2
    27    13    15   ar
    28    15    16    1
    29    20    21   ar
    30    21    22   ar
    31    22    17   ar
    32     6     1   ar
    33    15    10   ar
    34    11     3   ar
    35    29    26    1
@<TRIPOS>MOLECULE
*****
 31 35 0 0 0
SMALL
GASTEIGER

@<TRIPOS>ATOM
      1 C         143.2348  141.2181  163.3340 C.ar    1  UNL1        0.0291
      2 C         142.2062  140.7942  164.3400 C.ar    1  UNL1        0.0053
      3 C         142.2981  141.2792  165.7564 C.ar    1  UNL1        0.0352
      4 C         143.4187  142.1880  166.1668 C.ar    1  UNL1        0.0850
      5 C         144.4473  142.6119  165.1608 C.ar    1  UNL1        0.0488
      6 C         144.3554  142.1270  163.7443 C.ar    1  UNL1        0.1416
      7 F         145.3840  142.5509  162.7382 F       1  UNL1       -0.2041
      8 N         143.5105  142.6729  167.5834 N.ar    1  UNL1       -0.2422
      9 C         142.4819  142.2490  168.5894 C.ar    1  UNL1        0.1175
     10 C         141.3614  141.3402  168.1790 C.ar    1  UNL1        0.0989
     11 C         141.2695  140.8553  166.7626 C.ar    1  UNL1        0.0826
     12 N         140.0610  139.9736  166.6519 N.ar    1  UNL1       -0.2815
     13 C         139.4060  139.9137  168.0000 C.ar    1  UNL1        0.3316
     14 O         138.1651  139.1442  168.3440 O.2     1  UNL1       -0.2463
     15 N         140.2097  140.7583  168.9438 N.ar    1  UNL1       -0.2765
     16 C         139.9136  140.9817  170.3973 C.3     1  UNL1        0.1352
     17 C         142.9592  139.7633  159.0845 C.ar    1  UNL1        0.0888
     18 C         141.9842  140.7837  159.5926 C.ar    1  UNL1        0.0173
     19 C         142.0761  141.2687  161.0091 C.ar    1  UNL1        0.0029
     20 C         143.1429  140.7332  161.9174 C.ar    1  UNL1        0.0213
     21 C         144.1179  139.7128  161.4093 C.ar    1  UNL1        0.0986
     22 N         144.0261  139.2279  159.9929 N.ar    1  UNL1       -0.2457
     23 C         142.8674  139.2784  157.6680 C.3     1  UNL1        0.1876
     24 C         142.3325  136.8257  156.9985 C.3     1  UNL1        0.1747
     25 O         143.3335  137.8967  157.3167 O.3     1  UNL1       -0.3447
     26 C         139.5902  139.2747  165.4111 C.3     1  UNL1        0.0947
     27 C         138.6578  139.6203  164.2880 C.3     1  UNL1        0.0524
     28 C         138.9244  138.2861  163.6562 C.3     1  UNL1        0.1191
     29 C         139.8568  137.9405  164.7793 C.3     1  UNL1        0.0524
     30 O         138.4535  137.5872  162.4153 O.3     1  UNL1       -0.3534
     31 C         138.9773  138.0065  161.0738 C.3     1  UNL1        0.1740
@<TRIPOS>BOND
     1    24    25    1
     2    25    23    1
     3    23    17    1
     4    17    18   ar
     5    18    19   ar
     6    19    20   ar
     7    20     1    1
     8     1     2   ar
     9     2     3   ar
    10     3     4   ar
    11     4     5   ar
    12     5     6   ar
    13     6     7    1
    14     4     8   ar
    15     8     9   ar
    16     9    10   ar
    17    10    11   ar
    18    11    12   ar
    19    26    12    1
    20    26    27    1
    21    27    28    1
    22    28    30    1
    23    30    31    1
    24    28    29    1
    25    12    13   ar
    26    13    14    2
    27    13    15   ar
    28    15    16    1
    29    20    21   ar
    30    21    22   ar
    31    22    17   ar
    32     6     1   ar
    33    15    10   ar
    34    11     3   ar
    35    29    26    1
@<TRIPOS>MOLECULE
*****
 31 35 0 0 0
SMALL
GASTEIGER

@<TRIPOS>ATOM
      1 C         139.9210  143.2681  164.9238 C.ar    1  UNL1        0.0291
      2 C         140.8164  142.8492  163.7957 C.ar    1  UNL1        0.0053
      3 C         140.7775  143.5905  162.4923 C.ar    1  UNL1        0.0352
      4 C         139.8431  144.7507  162.3170 C.ar    1  UNL1        0.0850
      5 C         138.9477  145.1697  163.4451 C.ar    1  UNL1        0.0488
      6 C         138.9867  144.4284  164.7485 C.ar    1  UNL1        0.1416
      7 F         138.0912  144.8474  165.8767 F       1  UNL1       -0.2041
      8 N         139.8041  145.4920  161.0135 N.ar    1  UNL1       -0.2422
      9 C         140.6995  145.0730  159.8854 C.ar    1  UNL1        0.1175
     10 C         141.6339  143.9128  160.0607 C.ar    1  UNL1        0.0989
     11 C         141.6729  143.1715  161.3641 C.ar    1  UNL1        0.0826
     12 N         142.6896  142.0753  161.2438 N.ar    1  UNL1       -0.2815
     13 C         143.2791  142.1391  159.8659 C.ar    1  UNL1        0.3316
     14 O         144.3355  141.2272  159.3158 O.2     1  UNL1       -0.2463
     15 N         142.6266  143.2747  159.1347 N.ar    1  UNL1       -0.2765
     16 C         142.9160  143.6980  157.7250 C.3     1  UNL1        0.1352
     17 C         140.0378  141.0442  168.8342 C.ar    1  UNL1        0.0888
     18 C         140.4317  142.4907  168.7820 C.ar    1  UNL1        0.0173
     19 C         140.3927  143.2320  167.4785 C.ar    1  UNL1        0.0029
     20 C         139.9600  142.5268  166.2273 C.ar    1  UNL1        0.0213
     21 C         139.5661  141.0804  166.2796 C.ar    1  UNL1        0.0986
     22 N         139.6051  140.3391  167.5830 N.ar    1  UNL1       -0.2457
     23 C         140.0768  140.3029  170.1376 C.3     1  UNL1        0.1876
     24 C         142.4328  139.2421  169.8662 C.3     1  UNL1        0.1747
     25 O         141.0037  139.1362  170.3094 O.3     1  UNL1       -0.3447
     26 C         143.0531  141.0885  162.3134 C.3     1  UNL1        0.0947
     27 C         142.5500  139.7366  162.7246 C.3     1  UNL1        0.0524
     28 C         143.5672  139.6931  163.8262 C.3     1  UNL1        0.1191
     29 C         144.0704  141.0451  163.4149 C.3     1  UNL1        0.0524
     30 O         143.9307  138.7063  164.8958 O.3     1  UNL1       -0.3534
     31 C         143.1571  138.6739  166.1805 C.3     1  UNL1        0.1740
@<TRIPOS>BOND
     1    24    25    1
     2    25    23    1
     3    23    17    1
     4    17    18   ar
     5    18    19   ar
     6    19    20   ar
     7    20     1    1
     8     1     2   ar
     9     2     3   ar
    10     3     4   ar
    11     4     5   ar
    12     5     6   ar
    13     6     7    1
    14     4     8   ar
    15     8     9   ar
    16     9    10   ar
    17    10    11   ar
    18    11    12   ar
    19    26    12    1
    20    26    27    1
    21    27    28    1
    22    28    30    1
    23    30    31    1
    24    28    29    1
    25    12    13   ar
    26    13    14    2
    27    13    15   ar
    28    15    16    1
    29    20    21   ar
    30    21    22   ar
    31    22    17   ar
    32     6     1   ar
    33    15    10   ar
    34    11     3   ar
    35    29    26    1
@<TRIPOS>MOLECULE
*****
 31 35 0 0 0
SMALL
GASTEIGER

@<TRIPOS>ATOM
      1 C         142.8322  142.2303  165.2816 C.ar    1  UNL1        0.0291
      2 C         142.1144  141.4069  164.2536 C.ar    1  UNL1        0.0053
      3 C         142.6381  141.3369  162.8498 C.ar    1  UNL1        0.0352
      4 C         143.8795  142.0903  162.4739 C.ar    1  UNL1        0.0850
      5 C         144.5973  142.9137  163.5019 C.ar    1  UNL1        0.0488
      6 C         144.0736  142.9837  164.9057 C.ar    1  UNL1        0.1416
      7 F         144.7914  143.8072  165.9338 F       1  UNL1       -0.2041
      8 N         144.4031  142.0202  161.0700 N.ar    1  UNL1       -0.2422
      9 C         143.6854  141.1968  160.0420 C.ar    1  UNL1        0.1175
     10 C         142.4440  140.4434  160.4179 C.ar    1  UNL1        0.0989
     11 C         141.9203  140.5134  161.8217 C.ar    1  UNL1        0.0826
     12 N         140.6827  139.6693  161.8976 N.ar    1  UNL1       -0.2815
     13 C         140.4415  139.0775  160.5405 C.ar    1  UNL1        0.3316
     14 O         139.3103  138.1671  160.1640 O.2     1  UNL1       -0.2463
     15 N         141.5300  139.5560  159.6260 N.ar    1  UNL1       -0.2765
     16 C         141.6785  139.2080  158.1744 C.3     1  UNL1        0.1352
     17 C         141.2614  142.4404  169.4934 C.ar    1  UNL1        0.0888
     18 C         140.3475  142.7202  168.3373 C.ar    1  UNL1        0.0173
     19 C         140.8711  142.6501  166.9333 C.ar    1  UNL1        0.0029
     20 C         142.3086  142.3004  166.6856 C.ar    1  UNL1        0.0213
     21 C         143.2224  142.0206  167.8417 C.ar    1  UNL1        0.0986
     22 N         142.6989  142.0907  169.2456 N.ar    1  UNL1       -0.2457
     23 C         140.7378  142.5105  170.8973 C.3     1  UNL1        0.1876
     24 C         140.1955  139.9697  170.9187 C.3     1  UNL1        0.1747
     25 O         140.4599  141.2479  171.6579 O.3     1  UNL1       -0.3447
     26 C         139.8352  139.4546  163.1164 C.3     1  UNL1        0.0947
     27 C         139.7769  138.4175  164.1985 C.3     1  UNL1        0.0524
     28 C         138.6366  139.1510  164.8401 C.3     1  UNL1        0.1191
     29 C         138.6949  140.1882  163.7579 C.3     1  UNL1        0.0524
     30 O         137.7890  138.9363  166.0589 O.3     1  UNL1       -0.3534
     31 C         138.3348  139.2590  167.4183 C.3     1  UNL1        0.1740
@<TRIPOS>BOND
     1    24    25    1
     2    25    23    1
     3    23    17    1
     4    17    18   ar
     5    18    19   ar
     6    19    20   ar
     7    20     1    1
     8     1     2   ar
     9     2     3   ar
    10     3     4   ar
    11     4     5   ar
    12     5     6   ar
    13     6     7    1
    14     4     8   ar
    15     8     9   ar
    16     9    10   ar
    17    10    11   ar
    18    11    12   ar
    19    26    12    1
    20    26    27    1
    21    27    28    1
    22    28    30    1
    23    30    31    1
    24    28    29    1
    25    12    13   ar
    26    13    14    2
    27    13    15   ar
    28    15    16    1
    29    20    21   ar
    30    21    22   ar
    31    22    17   ar
    32     6     1   ar
    33    15    10   ar
    34    11     3   ar
    35    29    26    1
@<TRIPOS>MOLECULE
*****
 31 35 0 0 0
SMALL
GASTEIGER

@<TRIPOS>ATOM
      1 C         142.3763  143.5746  163.5653 C.ar    1  UNL1        0.0291
      2 C         141.5593  142.6976  164.4671 C.ar    1  UNL1        0.0053
      3 C         142.0441  142.3878  165.8524 C.ar    1  UNL1        0.0352
      4 C         143.3458  142.9550  166.3358 C.ar    1  UNL1        0.0850
      5 C         144.1628  143.8321  165.4341 C.ar    1  UNL1        0.0488
      6 C         143.6781  144.1419  164.0488 C.ar    1  UNL1        0.1416
      7 F         144.4951  145.0190  163.1469 F       1  UNL1       -0.2041
      8 N         143.8305  142.6452  167.7212 N.ar    1  UNL1       -0.2422
      9 C         143.0135  141.7682  168.6230 C.ar    1  UNL1        0.1175
     10 C         141.7118  141.2009  168.1395 C.ar    1  UNL1        0.0989
     11 C         141.2271  141.5107  166.7542 C.ar    1  UNL1        0.0826
     12 N         139.9139  140.8134  166.5558 N.ar    1  UNL1       -0.2815
     13 C         139.5871  140.0727  167.8185 C.ar    1  UNL1        0.3316
     14 O         138.3638  139.2388  168.0601 O.2     1  UNL1       -0.2463
     15 N         140.6982  140.3121  168.7973 N.ar    1  UNL1       -0.2765
     16 C         140.7812  139.7598  170.1895 C.3     1  UNL1        0.1352
     17 C         140.9223  144.5041  159.4093 C.ar    1  UNL1        0.0888
     18 C         140.2157  145.0845  160.5984 C.ar    1  UNL1        0.0173
     19 C         140.7004  144.7746  161.9837 C.ar    1  UNL1        0.0029
     20 C         141.8916  143.8845  162.1800 C.ar    1  UNL1        0.0213
     21 C         142.5982  143.3041  160.9909 C.ar    1  UNL1        0.0986
     22 N         142.1135  143.6139  159.6056 N.ar    1  UNL1       -0.2457
     23 C         140.4376  144.8139  158.0240 C.3     1  UNL1        0.1876
     24 C         139.5532  146.6768  156.4437 C.3     1  UNL1        0.1747
     25 O         140.5154  146.2166  157.4984 O.3     1  UNL1       -0.3447
     26 C         139.0749  140.8504  165.3130 C.3     1  UNL1        0.0947
     27 C         138.6969  139.8530  164.2584 C.3     1  UNL1        0.0524
     28 C         137.8884  140.9028  163.5553 C.3     1  UNL1        0.1191
     29 C         138.2665  141.9003  164.6099 C.3     1  UNL1        0.0524
     30 O         137.0494  140.9398  162.3124 O.3     1  UNL1       -0.3534
     31 C         137.6934  140.7757  160.9677 C.3     1  UNL1        0.1740
@<TRIPOS>BOND
     1    24    25    1
     2    25    23    1
     3    23    17    1
     4    17    18   ar
     5    18    19   ar
     6    19    20   ar
     7    20     1    1
     8     1     2   ar
     9     2     3   ar
    10     3     4   ar
    11     4     5   ar
    12     5     6   ar
    13     6     7    1
    14     4     8   ar
    15     8     9   ar
    16     9    10   ar
    17    10    11   ar
    18    11    12   ar
    19    26    12    1
    20    26    27    1
    21    27    28    1
    22    28    30    1
    23    30    31    1
    24    28    29    1
    25    12    13   ar
    26    13    14    2
    27    13    15   ar
    28    15    16    1
    29    20    21   ar
    30    21    22   ar
    31    22    17   ar
    32     6     1   ar
    33    15    10   ar
    34    11     3   ar
    35    29    26    1
@<TRIPOS>MOLECULE
*****
 31 35 0 0 0
SMALL
GASTEIGER

@<TRIPOS>ATOM
      1 C         139.4546  142.1681  164.3294 C.ar    1  UNL1        0.0291
      2 C         140.3847  141.6274  163.2841 C.ar    1  UNL1        0.0053
      3 C         140.1415  141.9298  161.8352 C.ar    1  UNL1        0.0352
      4 C         138.9684  142.7728  161.4316 C.ar    1  UNL1        0.0850
      5 C         138.0384  143.3136  162.4768 C.ar    1  UNL1        0.0488
      6 C         138.2815  143.0112  163.9257 C.ar    1  UNL1        0.1416
      7 F         137.3515  143.5519  164.9711 F       1  UNL1       -0.2041
      8 N         138.7253  143.0752  159.9825 N.ar    1  UNL1       -0.2422
      9 C         139.6553  142.5345  158.9373 C.ar    1  UNL1        0.1175
     10 C         140.8285  141.6914  159.3409 C.ar    1  UNL1        0.0989
     11 C         141.0716  141.3890  160.7898 C.ar    1  UNL1        0.0826
     12 N         142.3015  140.5358  160.8853 N.ar    1  UNL1       -0.2815
     13 C         142.8186  140.3108  159.4953 C.ar    1  UNL1        0.3316
     14 O         144.0329  139.5118  159.1249 O.2     1  UNL1       -0.2463
     15 N         141.9082  141.0250  158.5409 N.ar    1  UNL1       -0.2765
     16 C         142.0522  141.0657  157.0483 C.3     1  UNL1        0.1352
     17 C         140.1839  141.2610  168.6764 C.ar    1  UNL1        0.0888
     18 C         139.5789  140.2182  167.7839 C.ar    1  UNL1        0.0173
     19 C         139.3358  140.5206  166.3348 C.ar    1  UNL1        0.0029
     20 C         139.6977  141.8657  165.7784 C.ar    1  UNL1        0.0213
     21 C         140.3027  142.9085  166.6709 C.ar    1  UNL1        0.0986
     22 N         140.5458  142.6062  168.1198 N.ar    1  UNL1       -0.2457
     23 C         140.4270  140.9587  170.1253 C.3     1  UNL1        0.1876
     24 C         142.4314  139.3123  169.9779 C.3     1  UNL1        0.1747
     25 O         141.7880  140.5249  170.5828 O.3     1  UNL1       -0.3447
     26 C         142.9079  140.0013  162.1489 C.3     1  UNL1        0.0947
     27 C         142.7693  138.7334  162.9383 C.3     1  UNL1        0.0524
     28 C         143.7656  139.2456  163.9358 C.3     1  UNL1        0.1191
     29 C         143.9043  140.5135  163.1464 C.3     1  UNL1        0.0524
     30 O         144.3721  138.7111  165.1994 O.3     1  UNL1       -0.3534
     31 C         143.5017  138.4284  166.3879 C.3     1  UNL1        0.1740
@<TRIPOS>BOND
     1    24    25    1
     2    25    23    1
     3    23    17    1
     4    17    18   ar
     5    18    19   ar
     6    19    20   ar
     7    20     1    1
     8     1     2   ar
     9     2     3   ar
    10     3     4   ar
    11     4     5   ar
    12     5     6   ar
    13     6     7    1
    14     4     8   ar
    15     8     9   ar
    16     9    10   ar
    17    10    11   ar
    18    11    12   ar
    19    26    12    1
    20    26    27    1
    21    27    28    1
    22    28    30    1
    23    30    31    1
    24    28    29    1
    25    12    13   ar
    26    13    14    2
    27    13    15   ar
    28    15    16    1
    29    20    21   ar
    30    21    22   ar
    31    22    17   ar
    32     6     1   ar
    33    15    10   ar
    34    11     3   ar
    35    29    26    1
@<TRIPOS>MOLECULE
*****
 31 35 0 0 0
SMALL
GASTEIGER

@<TRIPOS>ATOM
      1 C         142.8972  142.3111  165.0252 C.ar    1  UNL1        0.0291
      2 C         141.8301  141.9282  164.0431 C.ar    1  UNL1        0.0053
      3 C         141.8940  142.4322  162.6318 C.ar    1  UNL1        0.0352
      4 C         143.0250  143.3191  162.2026 C.ar    1  UNL1        0.0850
      5 C         144.0921  143.7020  163.1847 C.ar    1  UNL1        0.0488
      6 C         144.0282  143.1980  164.5960 C.ar    1  UNL1        0.1416
      7 F         145.0954  143.5809  165.5782 F       1  UNL1       -0.2041
      8 N         143.0888  143.8231  160.7911 N.ar    1  UNL1       -0.2422
      9 C         142.0217  143.4402  159.8090 C.ar    1  UNL1        0.1175
     10 C         140.8907  142.5533  160.2382 C.ar    1  UNL1        0.0989
     11 C         140.8268  142.0493  161.6496 C.ar    1  UNL1        0.0826
     12 N         139.6001  141.1963  161.7821 N.ar    1  UNL1       -0.2815
     13 C         138.9058  141.1732  160.4527 C.ar    1  UNL1        0.3316
     14 O         137.6367  140.4400  160.1334 O.2     1  UNL1       -0.2463
     15 N         139.7035  142.0118  159.4985 N.ar    1  UNL1       -0.2765
     16 C         139.3720  142.2646  158.0575 C.3     1  UNL1        0.1352
     17 C         142.7056  140.7991  169.2593 C.ar    1  UNL1        0.0888
     18 C         143.3292  142.1315  168.9662 C.ar    1  UNL1        0.0173
     19 C         143.3930  142.6355  167.5548 C.ar    1  UNL1        0.0029
     20 C         142.8333  141.8071  166.4366 C.ar    1  UNL1        0.0213
     21 C         142.2098  140.4747  166.7297 C.ar    1  UNL1        0.0986
     22 N         142.1459  139.9707  168.1410 N.ar    1  UNL1       -0.2457
     23 C         142.6418  140.2951  170.6706 C.3     1  UNL1        0.1876
     24 C         140.6749  141.9158  171.1754 C.3     1  UNL1        0.1747
     25 O         141.6970  140.9258  171.6502 O.3     1  UNL1       -0.3447
     26 C         139.1472  140.4905  163.0257 C.3     1  UNL1        0.0947
     27 C         139.4259  139.1546  163.6483 C.3     1  UNL1        0.0524
     28 C         138.5067  139.4923  164.7845 C.3     1  UNL1        0.1191
     29 C         138.2279  140.8282  164.1619 C.3     1  UNL1        0.0524
     30 O         138.0538  138.7864  166.0281 O.3     1  UNL1       -0.3534
     31 C         138.5403  139.2457  167.3706 C.3     1  UNL1        0.1740
@<TRIPOS>BOND
     1    24    25    1
     2    25    23    1
     3    23    17    1
     4    17    18   ar
     5    18    19   ar
     6    19    20   ar
     7    20     1    1
     8     1     2   ar
     9     2     3   ar
    10     3     4   ar
    11     4     5   ar
    12     5     6   ar
    13     6     7    1
    14     4     8   ar
    15     8     9   ar
    16     9    10   ar
    17    10    11   ar
    18    11    12   ar
    19    26    12    1
    20    26    27    1
    21    27    28    1
    22    28    30    1
    23    30    31    1
    24    28    29    1
    25    12    13   ar
    26    13    14    2
    27    13    15   ar
    28    15    16    1
    29    20    21   ar
    30    21    22   ar
    31    22    17   ar
    32     6     1   ar
    33    15    10   ar
    34    11     3   ar
    35    29    26    1
@<TRIPOS>MOLECULE
*****
 31 35 0 0 0
SMALL
GASTEIGER

@<TRIPOS>ATOM
      1 C         140.7747  143.2263  163.4014 C.ar    1  UNL1        0.0291
      2 C         141.4484  142.1041  164.1340 C.ar    1  UNL1        0.0053
      3 C         141.2584  141.9541  165.6143 C.ar    1  UNL1        0.0352
      4 C         140.3948  142.9263  166.3620 C.ar    1  UNL1        0.0850
      5 C         139.7211  144.0485  165.6293 C.ar    1  UNL1        0.0488
      6 C         139.9111  144.1985  164.1490 C.ar    1  UNL1        0.1416
      7 F         139.2374  145.3207  163.4163 F       1  UNL1       -0.2041
      8 N         140.2048  142.7762  167.8424 N.ar    1  UNL1       -0.2422
      9 C         140.8785  141.6541  168.5750 C.ar    1  UNL1        0.1175
     10 C         141.7421  140.6819  167.8274 C.ar    1  UNL1        0.0989
     11 C         141.9321  140.8319  166.3471 C.ar    1  UNL1        0.0826
     12 N         142.8349  139.7283  165.8813 N.ar    1  UNL1       -0.2815
     13 C         143.2029  138.8961  167.0739 C.ar    1  UNL1        0.3316
     14 O         144.0905  137.6869  167.0652 O.2     1  UNL1       -0.2463
     15 N         142.5275  139.4855  168.2766 N.ar    1  UNL1       -0.2765
     16 C         142.6212  138.9692  169.6819 C.3     1  UNL1        0.1352
     17 C         141.3446  143.6765  158.9603 C.ar    1  UNL1        0.0888
     18 C         140.1960  142.8710  159.4912 C.ar    1  UNL1        0.0173
     19 C         140.0060  142.7210  160.9716 C.ar    1  UNL1        0.0029
     20 C         140.9647  143.3764  161.9210 C.ar    1  UNL1        0.0213
     21 C         142.1133  144.1818  161.3901 C.ar    1  UNL1        0.0986
     22 N         142.3033  144.3319  159.9098 N.ar    1  UNL1       -0.2457
     23 C         141.5346  143.8265  157.4800 C.3     1  UNL1        0.1876
     24 C         140.3512  146.1278  157.2476 C.3     1  UNL1        0.1747
     25 O         141.4450  145.1830  156.8461 O.3     1  UNL1       -0.3447
     26 C         143.2898  139.4973  164.4708 C.3     1  UNL1        0.0947
     27 C         142.7565  138.7319  163.2962 C.3     1  UNL1        0.0524
     28 C         143.9333  139.1707  162.4760 C.3     1  UNL1        0.1191
     29 C         144.4666  139.9361  163.6506 C.3     1  UNL1        0.0524
     30 O         144.3882  138.9397  161.0654 O.3     1  UNL1       -0.3534
     31 C         143.7063  139.6473  159.9321 C.3     1  UNL1        0.1740
@<TRIPOS>BOND
     1    24    25    1
     2    25    23    1
     3    23    17    1
     4    17    18   ar
     5    18    19   ar
     6    19    20   ar
     7    20     1    1
     8     1     2   ar
     9     2     3   ar
    10     3     4   ar
    11     4     5   ar
    12     5     6   ar
    13     6     7    1
    14     4     8   ar
    15     8     9   ar
    16     9    10   ar
    17    10    11   ar
    18    11    12   ar
    19    26    12    1
    20    26    27    1
    21    27    28    1
    22    28    30    1
    23    30    31    1
    24    28    29    1
    25    12    13   ar
    26    13    14    2
    27    13    15   ar
    28    15    16    1
    29    20    21   ar
    30    21    22   ar
    31    22    17   ar
    32     6     1   ar
    33    15    10   ar
    34    11     3   ar
    35    29    26    1
@<TRIPOS>MOLECULE
*****
 31 35 0 0 0
SMALL
GASTEIGER

@<TRIPOS>ATOM
      1 C         139.9462  140.3189  163.6781 C.ar    1  UNL1        0.0291
      2 C         140.3456  141.4049  162.7237 C.ar    1  UNL1        0.0053
      3 C         139.6908  141.4985  161.3775 C.ar    1  UNL1        0.0352
      4 C         138.6366  140.5060  160.9856 C.ar    1  UNL1        0.0850
      5 C         138.2372  139.4199  161.9400 C.ar    1  UNL1        0.0488
      6 C         138.8921  139.3263  163.2862 C.ar    1  UNL1        0.1416
      7 F         138.4927  138.2402  164.2406 F       1  UNL1       -0.2041
      8 N         137.9818  140.5996  159.6393 N.ar    1  UNL1       -0.2422
      9 C         138.3811  141.6857  158.6849 C.ar    1  UNL1        0.1175
     10 C         139.4353  142.6782  159.0768 C.ar    1  UNL1        0.0989
     11 C         140.0901  142.5846  160.4230 C.ar    1  UNL1        0.0826
     12 N         141.0906  143.6970  160.5302 N.ar    1  UNL1       -0.2815
     13 C         141.0541  144.4782  159.2501 C.ar    1  UNL1        0.3316
     14 O         141.8934  145.6783  158.9254 O.2     1  UNL1       -0.2463
     15 N         140.0311  143.8485  158.3519 N.ar    1  UNL1       -0.2765
     16 C         139.6676  144.3083  156.9711 C.3     1  UNL1        0.1352
     17 C         141.9107  140.0381  167.7170 C.ar    1  UNL1        0.0888
     18 C         142.4239  139.2129  166.5744 C.ar    1  UNL1        0.0173
     19 C         141.7691  139.3065  165.2280 C.ar    1  UNL1        0.0029
     20 C         140.6011  140.2253  165.0244 C.ar    1  UNL1        0.0213
     21 C         140.0878  141.0505  166.1670 C.ar    1  UNL1        0.0986
     22 N         140.7426  140.9569  167.5133 N.ar    1  UNL1       -0.2457
     23 C         142.5654  139.9445  169.0632 C.3     1  UNL1        0.1876
     24 C         141.3168  140.9223  171.1212 C.3     1  UNL1        0.1747
     25 O         141.7288  139.7423  170.2917 O.3     1  UNL1       -0.3447
     26 C         141.9727  143.9789  161.7102 C.3     1  UNL1        0.0947
     27 C         143.3674  143.5956  162.1074 C.3     1  UNL1        0.0524
     28 C         143.2201  144.3775  163.3791 C.3     1  UNL1        0.1191
     29 C         141.8254  144.7608  162.9818 C.3     1  UNL1        0.0524
     30 O         144.1022  144.6594  164.5591 O.3     1  UNL1       -0.3534
     31 C         144.5172  143.5416  165.4692 C.3     1  UNL1        0.1740
@<TRIPOS>BOND
     1    24    25    1
     2    25    23    1
     3    23    17    1
     4    17    18   ar
     5    18    19   ar
     6    19    20   ar
     7    20     1    1
     8     1     2   ar
     9     2     3   ar
    10     3     4   ar
    11     4     5   ar
    12     5     6   ar
    13     6     7    1
    14     4     8   ar
    15     8     9   ar
    16     9    10   ar
    17    10    11   ar
    18    11    12   ar
    19    26    12    1
    20    26    27    1
    21    27    28    1
    22    28    30    1
    23    30    31    1
    24    28    29    1
    25    12    13   ar
    26    13    14    2
    27    13    15   ar
    28    15    16    1
    29    20    21   ar
    30    21    22   ar
    31    22    17   ar
    32     6     1   ar
    33    15    10   ar
    34    11     3   ar
    35    29    26    1
