@<TRIPOS>MOLECULE
*****
 30 33 0 0 0
SMALL
GASTEIGER

@<TRIPOS>ATOM
      1 C         141.7802  137.9099  163.7913 C.3     1  UNL1        0.1467
      2 C         141.4510  138.5730  158.1085 C.3     1  UNL1        0.0896
      3 N         141.3055  138.5016  159.5997 N.3     1  UNL1       -0.2715
      4 C         140.0506  138.9969  160.2554 C.3     1  UNL1        0.0725
      5 C         139.9050  138.9255  161.7466 C.3     1  UNL1        0.0238
      6 C         141.0143  138.3588  162.5822 C.3     1  UNL1        0.0490
      7 C         142.2692  137.8635  161.9265 C.3     1  UNL1        0.0238
      8 C         142.4148  137.9349  160.4353 C.3     1  UNL1        0.0725
      9 C         140.0254  138.6982  163.6577 C.ar    1  UNL1       -0.0181
     10 C         139.6410  137.6661  164.6760 C.ar    1  UNL1       -0.0041
     11 C         138.6521  138.0054  165.7516 C.ar    1  UNL1        0.0020
     12 C         138.0476  139.3770  165.8088 C.ar    1  UNL1        0.0296
     13 C         138.4319  140.4092  164.7906 C.ar    1  UNL1        0.1398
     14 F         137.8274  141.7808  164.8478 F       1  UNL1       -0.2042
     15 C         139.4209  140.0698  163.7150 C.ar    1  UNL1        0.0254
     16 O         143.1388  138.4800  164.0727 O.3     1  UNL1       -0.3470
     17 C         143.3963  139.2037  165.3611 C.3     1  UNL1        0.1874
     18 C         142.4981  140.3289  165.7817 C.ar    1  UNL1        0.0883
     19 C         141.6895  140.2130  167.0399 C.ar    1  UNL1        0.0211
     20 C         140.7912  141.3383  167.4604 C.ar    1  UNL1        0.0738
     21 C         140.7015  142.5794  166.6229 C.ar    1  UNL1        0.0186
     22 C         141.5101  142.6954  165.3648 C.ar    1  UNL1        0.0583
     23 N         142.4084  141.5702  164.9442 N.ar    1  UNL1       -0.2515
     24 C         139.9826  141.2224  168.7185 C.3     1  UNL1        0.4187
     25 F         139.1740  141.1065  169.9765 F       1  UNL1       -0.1659
     26 F         139.9129  139.7350  168.5366 F       1  UNL1       -0.1659
     27 F         140.0524  142.7097  168.9003 F       1  UNL1       -0.1659
     28 C         141.4203  143.9366  164.5273 C.3     1  UNL1        0.0403
     29 C         142.0867  145.0956  163.8469 C.3     1  UNL1        0.0063
     30 C         140.5988  144.9275  163.7572 C.3     1  UNL1        0.0063
@<TRIPOS>BOND
     1     2     3    1
     2     3     4    1
     3     4     5    1
     4     5     6    1
     5     6     1    1
     6     1    16    1
     7    16    17    1
     8    17    18    1
     9    18    19   ar
    10    19    20   ar
    11    20    24    1
    12    24    25    1
    13    24    26    1
    14    24    27    1
    15    20    21   ar
    16    21    22   ar
    17    22    28    1
    18    28    29    1
    19    29    30    1
    20    22    23   ar
    21     6     9    1
    22     9    10   ar
    23    10    11   ar
    24    11    12   ar
    25    12    13   ar
    26    13    14    1
    27    13    15   ar
    28     6     7    1
    29     7     8    1
    30     8     3    1
    31    23    18   ar
    32    15     9   ar
    33    30    28    1
@<TRIPOS>MOLECULE
*****
 30 33 0 0 0
SMALL
GASTEIGER

@<TRIPOS>ATOM
      1 C         140.0971  143.3682  166.1452 C.3     1  UNL1        0.1467
      2 C         144.9267  142.5751  163.1640 C.3     1  UNL1        0.0896
      3 N         143.7601  142.6139  164.1061 N.3     1  UNL1       -0.2715
      4 C         143.7643  141.7620  165.3406 C.3     1  UNL1        0.0725
      5 C         142.5977  141.8008  166.2827 C.3     1  UNL1        0.0238
      6 C         141.4269  142.6916  165.9902 C.3     1  UNL1        0.0490
      7 C         141.4227  143.5436  164.7557 C.3     1  UNL1        0.0238
      8 C         142.5893  143.5047  163.8136 C.3     1  UNL1        0.0725
      9 C         140.9693  142.0746  167.2787 C.ar    1  UNL1       -0.0181
     10 C         141.0195  140.5861  167.4568 C.ar    1  UNL1       -0.0041
     11 C         140.5619  139.9690  168.7451 C.ar    1  UNL1        0.0020
     12 C         140.0541  140.8406  169.8553 C.ar    1  UNL1        0.0296
     13 C         140.0039  142.3291  169.6773 C.ar    1  UNL1        0.1398
     14 F         139.4961  143.2007  170.7875 F       1  UNL1       -0.2042
     15 C         140.4615  142.9462  168.3889 C.ar    1  UNL1        0.0254
     16 O         139.2044  143.5495  164.9535 O.3     1  UNL1       -0.3470
     17 C         138.2778  142.4463  164.5358 C.3     1  UNL1        0.1874
     18 C         138.7238  141.0171  164.6279 C.ar    1  UNL1        0.0883
     19 C         138.0426  140.0787  165.5795 C.ar    1  UNL1        0.0211
     20 C         138.4886  138.6495  165.6716 C.ar    1  UNL1        0.0738
     21 C         139.6157  138.1587  164.8122 C.ar    1  UNL1        0.0186
     22 C         140.2969  139.0970  163.8606 C.ar    1  UNL1        0.0583
     23 N         139.8510  140.5262  163.7684 N.ar    1  UNL1       -0.2515
     24 C         137.8074  137.7111  166.6232 C.3     1  UNL1        0.4187
     25 F         137.1263  136.7727  167.5748 F       1  UNL1       -0.1659
     26 F         137.4383  138.8697  167.5015 F       1  UNL1       -0.1659
     27 F         138.1766  136.5525  165.7449 F       1  UNL1       -0.1659
     28 C         141.4240  138.6062  163.0012 C.3     1  UNL1        0.0403
     29 C         142.8688  138.6554  162.6006 C.3     1  UNL1        0.0063
     30 C         141.9317  137.7068  161.9134 C.3     1  UNL1        0.0063
@<TRIPOS>BOND
     1     2     3    1
     2     3     4    1
     3     4     5    1
     4     5     6    1
     5     6     1    1
     6     1    16    1
     7    16    17    1
     8    17    18    1
     9    18    19   ar
    10    19    20   ar
    11    20    24    1
    12    24    25    1
    13    24    26    1
    14    24    27    1
    15    20    21   ar
    16    21    22   ar
    17    22    28    1
    18    28    29    1
    19    29    30    1
    20    22    23   ar
    21     6     9    1
    22     9    10   ar
    23    10    11   ar
    24    11    12   ar
    25    12    13   ar
    26    13    14    1
    27    13    15   ar
    28     6     7    1
    29     7     8    1
    30     8     3    1
    31    23    18   ar
    32    15     9   ar
    33    30    28    1
@<TRIPOS>MOLECULE
*****
 30 33 0 0 0
SMALL
GASTEIGER

@<TRIPOS>ATOM
      1 C         141.8282  137.9822  163.7462 C.3     1  UNL1        0.1467
      2 C         141.4723  138.4355  158.0445 C.3     1  UNL1        0.0896
      3 N         141.3310  138.4126  159.5376 N.3     1  UNL1       -0.2715
      4 C         140.0636  138.8953  160.1785 C.3     1  UNL1        0.0725
      5 C         139.9223  138.8724  161.6717 C.3     1  UNL1        0.0238
      6 C         141.0483  138.3666  162.5239 C.3     1  UNL1        0.0490
      7 C         142.3156  137.8839  161.8830 C.3     1  UNL1        0.0238
      8 C         142.4569  137.9068  160.3899 C.3     1  UNL1        0.0725
      9 C         140.0517  138.7159  163.5893 C.ar    1  UNL1       -0.0181
     10 C         139.7697  137.7470  164.6991 C.ar    1  UNL1       -0.0041
     11 C         138.7732  138.0962  165.7645 C.ar    1  UNL1        0.0020
     12 C         138.0588  139.4144  165.7201 C.ar    1  UNL1        0.0296
     13 C         138.3408  140.3834  164.6103 C.ar    1  UNL1        0.1398
     14 F         137.6264  141.7015  164.5658 F       1  UNL1       -0.2042
     15 C         139.3373  140.0341  163.5449 C.ar    1  UNL1        0.0254
     16 O         143.1989  138.5487  163.9701 O.3     1  UNL1       -0.3470
     17 C         143.5138  139.2671  165.2488 C.3     1  UNL1        0.1874
     18 C         142.5074  140.2021  165.8512 C.ar    1  UNL1        0.0883
     19 C         142.1671  141.4870  165.1560 C.ar    1  UNL1        0.0211
     20 C         141.1607  142.4219  165.7585 C.ar    1  UNL1        0.0738
     21 C         140.4945  142.0719  167.0561 C.ar    1  UNL1        0.0186
     22 C         140.8347  140.7870  167.7512 C.ar    1  UNL1        0.0583
     23 N         141.8412  139.8520  167.1488 N.ar    1  UNL1       -0.2515
     24 C         140.8204  143.7069  165.0634 C.3     1  UNL1        0.4187
     25 F         140.4800  144.9918  164.3684 F       1  UNL1       -0.1659
     26 F         139.4205  143.6242  165.5961 F       1  UNL1       -0.1659
     27 F         142.2202  143.7895  164.5309 F       1  UNL1       -0.1659
     28 C         140.1685  140.4370  169.0488 C.3     1  UNL1        0.0403
     29 C         140.2408  139.8627  170.4327 C.3     1  UNL1        0.0063
     30 C         138.9426  140.4051  169.9125 C.3     1  UNL1        0.0063
@<TRIPOS>BOND
     1     2     3    1
     2     3     4    1
     3     4     5    1
     4     5     6    1
     5     6     1    1
     6     1    16    1
     7    16    17    1
     8    17    18    1
     9    18    19   ar
    10    19    20   ar
    11    20    24    1
    12    24    25    1
    13    24    26    1
    14    24    27    1
    15    20    21   ar
    16    21    22   ar
    17    22    28    1
    18    28    29    1
    19    29    30    1
    20    22    23   ar
    21     6     9    1
    22     9    10   ar
    23    10    11   ar
    24    11    12   ar
    25    12    13   ar
    26    13    14    1
    27    13    15   ar
    28     6     7    1
    29     7     8    1
    30     8     3    1
    31    23    18   ar
    32    15     9   ar
    33    30    28    1
@<TRIPOS>MOLECULE
*****
 30 33 0 0 0
SMALL
GASTEIGER

@<TRIPOS>ATOM
      1 C         141.0563  144.7621  163.9636 C.3     1  UNL1        0.1467
      2 C         140.3864  145.6089  158.3354 C.3     1  UNL1        0.0896
      3 N         140.7513  145.2333  159.7411 N.3     1  UNL1       -0.2715
      4 C         141.8823  144.2810  159.9934 C.3     1  UNL1        0.0725
      5 C         142.2472  143.9055  161.3991 C.3     1  UNL1        0.0238
      6 C         141.4810  144.4823  162.5524 C.3     1  UNL1        0.0490
      7 C         140.3499  145.4346  162.3001 C.3     1  UNL1        0.0238
      8 C         139.9851  145.8102  160.8944 C.3     1  UNL1        0.0725
      9 C         142.4646  143.6271  163.2949 C.ar    1  UNL1       -0.0181
     10 C         142.5470  142.1572  163.0078 C.ar    1  UNL1       -0.0041
     11 C         143.5306  141.3019  163.7502 C.ar    1  UNL1        0.0020
     12 C         144.4317  141.9167  164.7797 C.ar    1  UNL1        0.0296
     13 C         144.3494  143.3867  165.0668 C.ar    1  UNL1        0.1398
     14 F         145.2506  144.0015  166.0963 F       1  UNL1       -0.2042
     15 C         143.3658  144.2419  164.3244 C.ar    1  UNL1        0.0254
     16 O         139.7005  144.3305  164.4384 O.3     1  UNL1       -0.3470
     17 C         139.5374  143.7453  165.8100 C.3     1  UNL1        0.1874
     18 C         140.3321  142.5374  166.2094 C.ar    1  UNL1        0.0883
     19 C         141.3004  142.6210  167.3520 C.ar    1  UNL1        0.0211
     20 C         142.0950  141.4130  167.7513 C.ar    1  UNL1        0.0738
     21 C         141.9214  140.1217  167.0082 C.ar    1  UNL1        0.0186
     22 C         140.9530  140.0382  165.8657 C.ar    1  UNL1        0.0583
     23 N         140.1584  141.2460  165.4662 N.ar    1  UNL1       -0.2515
     24 C         143.0634  141.4965  168.8939 C.3     1  UNL1        0.4187
     25 F         144.0318  141.5799  170.0363 F       1  UNL1       -0.1659
     26 F         143.7601  142.6412  168.2197 F       1  UNL1       -0.1659
     27 F         142.3667  140.3518  169.5679 F       1  UNL1       -0.1659
     28 C         140.7794  138.7468  165.1226 C.3     1  UNL1        0.0403
     29 C         139.8980  137.6299  164.6473 C.3     1  UNL1        0.0063
     30 C         141.3598  137.6269  164.3109 C.3     1  UNL1        0.0063
@<TRIPOS>BOND
     1     2     3    1
     2     3     4    1
     3     4     5    1
     4     5     6    1
     5     6     1    1
     6     1    16    1
     7    16    17    1
     8    17    18    1
     9    18    19   ar
    10    19    20   ar
    11    20    24    1
    12    24    25    1
    13    24    26    1
    14    24    27    1
    15    20    21   ar
    16    21    22   ar
    17    22    28    1
    18    28    29    1
    19    29    30    1
    20    22    23   ar
    21     6     9    1
    22     9    10   ar
    23    10    11   ar
    24    11    12   ar
    25    12    13   ar
    26    13    14    1
    27    13    15   ar
    28     6     7    1
    29     7     8    1
    30     8     3    1
    31    23    18   ar
    32    15     9   ar
    33    30    28    1
@<TRIPOS>MOLECULE
*****
 30 33 0 0 0
SMALL
GASTEIGER

@<TRIPOS>ATOM
      1 C         140.9274  144.9225  163.9806 C.3     1  UNL1        0.1467
      2 C         140.5355  145.5318  158.2958 C.3     1  UNL1        0.0896
      3 N         140.8142  145.1980  159.7313 N.3     1  UNL1       -0.2715
      4 C         141.8397  144.1585  160.0742 C.3     1  UNL1        0.0725
      5 C         142.1184  143.8247  161.5098 C.3     1  UNL1        0.0238
      6 C         141.3716  144.5305  162.6025 C.3     1  UNL1        0.0490
      7 C         140.3461  145.5700  162.2597 C.3     1  UNL1        0.0238
      8 C         140.0674  145.9038  160.8241 C.3     1  UNL1        0.0725
      9 C         142.2429  143.6270  163.4240 C.ar    1  UNL1       -0.0181
     10 C         142.0836  142.1388  163.3257 C.ar    1  UNL1       -0.0041
     11 C         142.9548  141.2353  164.1471 C.ar    1  UNL1        0.0020
     12 C         143.9854  141.8202  165.0668 C.ar    1  UNL1        0.0296
     13 C         144.1448  143.3085  165.1650 C.ar    1  UNL1        0.1398
     14 F         145.1754  143.8934  166.0847 F       1  UNL1       -0.2042
     15 C         143.2735  144.2119  164.3436 C.ar    1  UNL1        0.0254
     16 O         139.4650  144.9784  164.3095 O.3     1  UNL1       -0.3470
     17 C         138.6915  143.7084  164.5068 C.3     1  UNL1        0.1874
     18 C         139.2445  142.6214  165.3800 C.ar    1  UNL1        0.0883
     19 C         138.7682  141.2090  165.2117 C.ar    1  UNL1        0.0211
     20 C         139.3213  140.1220  166.0850 C.ar    1  UNL1        0.0738
     21 C         140.3505  140.4474  167.1264 C.ar    1  UNL1        0.0186
     22 C         140.8268  141.8598  167.2947 C.ar    1  UNL1        0.0583
     23 N         140.2738  142.9468  166.4215 N.ar    1  UNL1       -0.2515
     24 C         138.8450  138.7095  165.9168 C.3     1  UNL1        0.4187
     25 F         138.3688  137.2972  165.7486 F       1  UNL1       -0.1659
     26 F         137.5291  139.0798  166.5344 F       1  UNL1       -0.1659
     27 F         140.1609  138.3394  165.2992 F       1  UNL1       -0.1659
     28 C         141.8561  142.1851  168.3362 C.3     1  UNL1        0.0403
     29 C         143.2922  142.3557  168.7345 C.3     1  UNL1        0.0063
     30 C         142.2030  142.5780  169.7416 C.3     1  UNL1        0.0063
@<TRIPOS>BOND
     1     2     3    1
     2     3     4    1
     3     4     5    1
     4     5     6    1
     5     6     1    1
     6     1    16    1
     7    16    17    1
     8    17    18    1
     9    18    19   ar
    10    19    20   ar
    11    20    24    1
    12    24    25    1
    13    24    26    1
    14    24    27    1
    15    20    21   ar
    16    21    22   ar
    17    22    28    1
    18    28    29    1
    19    29    30    1
    20    22    23   ar
    21     6     9    1
    22     9    10   ar
    23    10    11   ar
    24    11    12   ar
    25    12    13   ar
    26    13    14    1
    27    13    15   ar
    28     6     7    1
    29     7     8    1
    30     8     3    1
    31    23    18   ar
    32    15     9   ar
    33    30    28    1
@<TRIPOS>MOLECULE
*****
 30 33 0 0 0
SMALL
GASTEIGER

@<TRIPOS>ATOM
      1 C         139.7041  137.9453  164.5421 C.3     1  UNL1        0.1467
      2 C         137.9848  140.0300  159.4884 C.3     1  UNL1        0.0896
      3 N         138.6462  139.6177  160.7700 N.3     1  UNL1       -0.2715
      4 C         140.0162  140.1282  161.1050 C.3     1  UNL1        0.0725
      5 C         140.6776  139.7159  162.3867 C.3     1  UNL1        0.0238
      6 C         139.9689  138.7931  163.3333 C.3     1  UNL1        0.0490
      7 C         138.5989  138.2826  162.9983 C.3     1  UNL1        0.0238
      8 C         137.9375  138.6949  161.7166 C.3     1  UNL1        0.0725
      9 C         141.2471  139.0092  164.0881 C.ar    1  UNL1       -0.0181
     10 C         141.8248  137.9010  164.9175 C.ar    1  UNL1       -0.0041
     11 C         143.1029  138.1170  165.6723 C.ar    1  UNL1        0.0020
     12 C         143.8032  139.4414  165.5977 C.ar    1  UNL1        0.0296
     13 C         143.2255  140.5497  164.7683 C.ar    1  UNL1        0.1398
     14 F         143.9258  141.8741  164.6937 F       1  UNL1       -0.2042
     15 C         141.9474  140.3336  164.0135 C.ar    1  UNL1        0.0254
     16 O         138.4663  138.1699  165.3591 O.3     1  UNL1       -0.3470
     17 C         138.5582  138.8686  166.6832 C.3     1  UNL1        0.1874
     18 C         139.4236  140.0849  166.8309 C.ar    1  UNL1        0.0883
     19 C         140.5718  140.0758  167.7962 C.ar    1  UNL1        0.0211
     20 C         141.4371  141.2921  167.9438 C.ar    1  UNL1        0.0738
     21 C         141.1543  142.5175  167.1263 C.ar    1  UNL1        0.0186
     22 C         140.0060  142.5266  166.1611 C.ar    1  UNL1        0.0583
     23 N         139.1407  141.3104  166.0134 N.ar    1  UNL1       -0.2515
     24 C         142.5853  141.2830  168.9090 C.3     1  UNL1        0.4187
     25 F         143.7335  141.2740  169.8742 F       1  UNL1       -0.1659
     26 F         142.4596  142.7688  169.0723 F       1  UNL1       -0.1659
     27 F         142.7109  139.7972  168.7456 F       1  UNL1       -0.1659
     28 C         139.7232  143.7521  165.3436 C.3     1  UNL1        0.0403
     29 C         140.1284  144.7213  164.2728 C.3     1  UNL1        0.0063
     30 C         138.8285  144.9053  164.9983 C.3     1  UNL1        0.0063
@<TRIPOS>BOND
     1     2     3    1
     2     3     4    1
     3     4     5    1
     4     5     6    1
     5     6     1    1
     6     1    16    1
     7    16    17    1
     8    17    18    1
     9    18    19   ar
    10    19    20   ar
    11    20    24    1
    12    24    25    1
    13    24    26    1
    14    24    27    1
    15    20    21   ar
    16    21    22   ar
    17    22    28    1
    18    28    29    1
    19    29    30    1
    20    22    23   ar
    21     6     9    1
    22     9    10   ar
    23    10    11   ar
    24    11    12   ar
    25    12    13   ar
    26    13    14    1
    27    13    15   ar
    28     6     7    1
    29     7     8    1
    30     8     3    1
    31    23    18   ar
    32    15     9   ar
    33    30    28    1
@<TRIPOS>MOLECULE
*****
 30 33 0 0 0
SMALL
GASTEIGER

@<TRIPOS>ATOM
      1 C         140.4204  140.6447  162.2542 C.3     1  UNL1        0.1467
      2 C         144.2922  142.6617  158.5416 C.3     1  UNL1        0.0896
      3 N         143.4792  142.0547  159.6464 N.3     1  UNL1       -0.2715
      4 C         144.1642  141.3884  160.8027 C.3     1  UNL1        0.0725
      5 C         143.3512  140.7814  161.9075 C.3     1  UNL1        0.0238
      6 C         141.8533  140.8405  161.8561 C.3     1  UNL1        0.0490
      7 C         141.1684  141.5067  160.6998 C.3     1  UNL1        0.0238
      8 C         141.9813  142.1138  159.5950 C.3     1  UNL1        0.0725
      9 C         142.0407  140.1063  163.1506 C.ar    1  UNL1       -0.0181
     10 C         142.7180  140.7828  164.3054 C.ar    1  UNL1       -0.0041
     11 C         142.9054  140.0487  165.5999 C.ar    1  UNL1        0.0020
     12 C         142.4154  138.6379  165.7396 C.ar    1  UNL1        0.0296
     13 C         141.7381  137.9612  164.5849 C.ar    1  UNL1        0.1398
     14 F         141.2481  136.5504  164.7247 F       1  UNL1       -0.2042
     15 C         141.5507  138.6955  163.2904 C.ar    1  UNL1        0.0254
     16 O         139.4838  141.8159  162.2850 O.3     1  UNL1       -0.3470
     17 C         138.5234  141.9784  163.4258 C.3     1  UNL1        0.1874
     18 C         138.8058  141.3197  164.7435 C.ar    1  UNL1        0.0883
     19 C         138.2200  139.9731  165.0496 C.ar    1  UNL1        0.0211
     20 C         138.5024  139.3145  166.3673 C.ar    1  UNL1        0.0738
     21 C         139.3705  140.0023  167.3789 C.ar    1  UNL1        0.0186
     22 C         139.9562  141.3489  167.0728 C.ar    1  UNL1        0.0583
     23 N         139.6739  142.0076  165.7551 N.ar    1  UNL1       -0.2515
     24 C         137.9167  137.9678  166.6735 C.3     1  UNL1        0.4187
     25 F         137.3310  136.6214  166.9797 F       1  UNL1       -0.1659
     26 F         137.2184  138.5437  167.8697 F       1  UNL1       -0.1659
     27 F         138.6150  137.3922  165.4773 F       1  UNL1       -0.1659
     28 C         140.8243  142.0367  168.0843 C.3     1  UNL1        0.0403
     29 C         140.9768  142.9962  169.2273 C.3     1  UNL1        0.0063
     30 C         142.1751  142.2686  168.6937 C.3     1  UNL1        0.0063
@<TRIPOS>BOND
     1     2     3    1
     2     3     4    1
     3     4     5    1
     4     5     6    1
     5     6     1    1
     6     1    16    1
     7    16    17    1
     8    17    18    1
     9    18    19   ar
    10    19    20   ar
    11    20    24    1
    12    24    25    1
    13    24    26    1
    14    24    27    1
    15    20    21   ar
    16    21    22   ar
    17    22    28    1
    18    28    29    1
    19    29    30    1
    20    22    23   ar
    21     6     9    1
    22     9    10   ar
    23    10    11   ar
    24    11    12   ar
    25    12    13   ar
    26    13    14    1
    27    13    15   ar
    28     6     7    1
    29     7     8    1
    30     8     3    1
    31    23    18   ar
    32    15     9   ar
    33    30    28    1
@<TRIPOS>MOLECULE
*****
 30 33 0 0 0
SMALL
GASTEIGER

@<TRIPOS>ATOM
      1 C         142.6206  139.7387  165.7500 C.3     1  UNL1        0.1467
      2 C         141.7548  141.5407  171.1207 C.3     1  UNL1        0.0896
      3 N         142.0870  141.2964  169.6785 N.3     1  UNL1       -0.2715
      4 C         142.7723  142.3622  168.8757 C.3     1  UNL1        0.0725
      5 C         143.1045  142.1178  167.4335 C.3     1  UNL1        0.0238
      6 C         142.7515  140.8077  166.7941 C.3     1  UNL1        0.0490
      7 C         142.0662  139.7419  167.5969 C.3     1  UNL1        0.0238
      8 C         141.7340  139.9863  169.0391 C.3     1  UNL1        0.0725
      9 C         143.3913  141.5022  165.6287 C.ar    1  UNL1       -0.0181
     10 C         144.1722  140.7119  164.6211 C.ar    1  UNL1       -0.0041
     11 C         144.8121  141.4063  163.4557 C.ar    1  UNL1        0.0020
     12 C         144.6709  142.8913  163.2979 C.ar    1  UNL1        0.0296
     13 C         143.8900  143.6818  164.3055 C.ar    1  UNL1        0.1398
     14 F         143.7488  145.1668  164.1477 F       1  UNL1       -0.2042
     15 C         143.2501  142.9872  165.4709 C.ar    1  UNL1        0.0254
     16 O         141.3181  139.0154  165.5763 O.3     1  UNL1       -0.3470
     17 C         140.3285  139.4877  164.5527 C.3     1  UNL1        0.1874
     18 C         140.3341  140.9208  164.1096 C.ar    1  UNL1        0.0883
     19 C         139.6852  141.9716  164.9609 C.ar    1  UNL1        0.0211
     20 C         139.6908  143.4046  164.5178 C.ar    1  UNL1        0.0738
     21 C         140.3453  143.7868  163.2234 C.ar    1  UNL1        0.0186
     22 C         140.9942  142.7360  162.3720 C.ar    1  UNL1        0.0583
     23 N         140.9886  141.3030  162.8151 N.ar    1  UNL1       -0.2515
     24 C         139.0419  144.4555  165.3691 C.3     1  UNL1        0.4187
     25 F         138.3930  145.5063  166.2202 F       1  UNL1       -0.1659
     26 F         138.4768  145.1026  164.1394 F       1  UNL1       -0.1659
     27 F         139.6070  143.8084  166.5986 F       1  UNL1       -0.1659
     28 C         141.6487  143.1183  161.0777 C.3     1  UNL1        0.0403
     29 C         142.4737  142.7492  159.8804 C.3     1  UNL1        0.0063
     30 C         141.9575  144.1493  160.0328 C.3     1  UNL1        0.0063
@<TRIPOS>BOND
     1     2     3    1
     2     3     4    1
     3     4     5    1
     4     5     6    1
     5     6     1    1
     6     1    16    1
     7    16    17    1
     8    17    18    1
     9    18    19   ar
    10    19    20   ar
    11    20    24    1
    12    24    25    1
    13    24    26    1
    14    24    27    1
    15    20    21   ar
    16    21    22   ar
    17    22    28    1
    18    28    29    1
    19    29    30    1
    20    22    23   ar
    21     6     9    1
    22     9    10   ar
    23    10    11   ar
    24    11    12   ar
    25    12    13   ar
    26    13    14    1
    27    13    15   ar
    28     6     7    1
    29     7     8    1
    30     8     3    1
    31    23    18   ar
    32    15     9   ar
    33    30    28    1
@<TRIPOS>MOLECULE
*****
 30 33 0 0 0
SMALL
GASTEIGER

@<TRIPOS>ATOM
      1 C         142.4866  142.2611  165.1978 C.3     1  UNL1        0.1467
      2 C         141.9819  142.4132  170.9043 C.3     1  UNL1        0.0896
      3 N         141.8711  142.4452  169.4087 N.3     1  UNL1       -0.2715
      4 C         140.5737  142.8283  168.7608 C.3     1  UNL1        0.0725
      5 C         140.4629  142.8602  167.2652 C.3     1  UNL1        0.0238
      6 C         141.6496  142.5091  166.4176 C.3     1  UNL1        0.0490
      7 C         142.9470  142.1260  167.0655 C.3     1  UNL1        0.0238
      8 C         143.0578  142.0941  168.5611 C.3     1  UNL1        0.0725
      9 C         140.6428  142.8061  165.3460 C.ar    1  UNL1       -0.0181
     10 C         139.2016  142.4437  165.5498 C.ar    1  UNL1       -0.0041
     11 C         138.1948  142.7406  164.4783 C.ar    1  UNL1        0.0020
     12 C         138.6293  143.4000  163.2030 C.ar    1  UNL1        0.0296
     13 C         140.0705  143.7625  162.9991 C.ar    1  UNL1        0.1398
     14 F         140.5050  144.4219  161.7238 F       1  UNL1       -0.2042
     15 C         141.0773  143.4655  164.0707 C.ar    1  UNL1        0.0254
     16 O         143.3578  141.0425  165.1211 O.3     1  UNL1       -0.3470
     17 C         142.9058  139.8455  164.3382 C.3     1  UNL1        0.1874
     18 C         141.4446  139.6270  164.0789 C.ar    1  UNL1        0.0883
     19 C         140.5828  138.9933  165.1306 C.ar    1  UNL1        0.0211
     20 C         139.1217  138.7749  164.8712 C.ar    1  UNL1        0.0738
     21 C         138.5222  139.1901  163.5604 C.ar    1  UNL1        0.0186
     22 C         139.3840  139.8237  162.5088 C.ar    1  UNL1        0.0583
     23 N         140.8452  140.0422  162.7680 N.ar    1  UNL1       -0.2515
     24 C         138.2598  138.1412  165.9228 C.3     1  UNL1        0.4187
     25 F         137.3980  137.5076  166.9744 F       1  UNL1       -0.1659
     26 F         137.7104  139.4893  166.2848 F       1  UNL1       -0.1659
     27 F         138.8092  136.7932  165.5608 F       1  UNL1       -0.1659
     28 C         138.7846  140.2389  161.1980 C.3     1  UNL1        0.0403
     29 C         137.7374  140.0709  160.1371 C.3     1  UNL1        0.0063
     30 C         138.7933  141.1259  159.9884 C.3     1  UNL1        0.0063
@<TRIPOS>BOND
     1     2     3    1
     2     3     4    1
     3     4     5    1
     4     5     6    1
     5     6     1    1
     6     1    16    1
     7    16    17    1
     8    17    18    1
     9    18    19   ar
    10    19    20   ar
    11    20    24    1
    12    24    25    1
    13    24    26    1
    14    24    27    1
    15    20    21   ar
    16    21    22   ar
    17    22    28    1
    18    28    29    1
    19    29    30    1
    20    22    23   ar
    21     6     9    1
    22     9    10   ar
    23    10    11   ar
    24    11    12   ar
    25    12    13   ar
    26    13    14    1
    27    13    15   ar
    28     6     7    1
    29     7     8    1
    30     8     3    1
    31    23    18   ar
    32    15     9   ar
    33    30    28    1
