@<TRIPOS>MOLECULE
*****
 31 34 0 0 0
SMALL
GASTEIGER

@<TRIPOS>ATOM
      1 C         143.1281  138.9107  159.8055 C.ar    1  UNL1        0.2437
      2 C         143.2575  137.7553  160.7534 C.ar    1  UNL1        0.0608
      3 C         142.9723  137.9475  162.2135 C.ar    1  UNL1        0.0258
      4 C         142.5577  139.2951  162.7256 C.ar    1  UNL1        0.1060
      5 N         142.4283  140.4504  161.7778 N.ar    1  UNL1       -0.1450
      6 N         142.7135  140.2582  160.3177 N.ar    1  UNL1       -0.1103
      7 C         142.2726  139.4873  164.1857 C.ar    1  UNL1        0.0532
      8 C         143.2362  138.9704  165.2125 C.ar    1  UNL1        0.0061
      9 C         142.9511  139.1625  166.6725 C.ar    1  UNL1        0.0194
     10 C         141.7022  139.8716  167.1058 C.ar    1  UNL1        0.0859
     11 C         140.7386  140.3885  166.0790 C.ar    1  UNL1        0.0558
     12 C         141.0238  140.1963  164.6190 C.ar    1  UNL1        0.1366
     13 O         140.0601  140.7132  163.5922 O.3     1  UNL1       -0.5054
     14 H         139.2800  141.1562  163.8628 H       1  UNL1        0.2922
     15 N         141.4170  140.0638  168.5658 N.ar    1  UNL1       -0.2280
     16 C         142.3928  140.5438  169.5990 C.ar    1  UNL1        0.1020
     17 C         141.6849  140.5864  170.9208 C.ar    1  UNL1        0.0431
     18 C         140.2716  140.1328  170.7045 C.ar    1  UNL1        0.1221
     19 N         140.1061  139.8098  169.2490 N.ar    1  UNL1       -0.1635
     20 O         143.4132  138.7185  158.3455 O.3     1  UNL1       -0.4629
     21 C         141.6516  134.4068  155.4799 C.3     1  UNL1        0.0159
     22 C         142.1201  135.5974  156.2630 C.3     1  UNL1        0.0454
     23 C         143.3238  134.7115  156.3908 C.3     1  UNL1        0.0159
     24 C         143.0066  136.4803  157.0904 C.3     1  UNL1        0.0580
     25 C         142.5267  137.8356  157.5180 C.3     1  UNL1        0.1702
     26 C         141.1603  138.3080  157.1182 C.3     1  UNL1        0.0580
     27 C         140.2739  137.4252  156.2908 C.3     1  UNL1        0.0454
     28 C         139.3780  138.6176  156.4503 C.3     1  UNL1        0.0159
     29 C         139.0763  136.9564  155.5188 C.3     1  UNL1        0.0159
     30 N         140.7537  136.0699  155.8632 N.3     1  UNL1       -0.3014
     31 H         140.7236  136.0550  154.8437 H       1  UNL1        0.1231
@<TRIPOS>BOND
     1    21    22    1
     2    22    23    1
     3    22    24    1
     4    24    25    1
     5    25    20    1
     6    20     1    1
     7     1     2   ar
     8     2     3   ar
     9     3     4   ar
    10     4     7    1
    11     7     8   ar
    12     8     9   ar
    13     9    10   ar
    14    10    15    1
    15    15    16   ar
    16    16    17   ar
    17    17    18   ar
    18    18    19   ar
    19    10    11   ar
    20    11    12   ar
    21    12    13    1
    22     4     5   ar
    23     5     6   ar
    24    25    26    1
    25    26    27    1
    26    27    28    1
    27    27    29    1
    28    27    30    1
    29    30    22    1
    30     6     1   ar
    31    12     7   ar
    32    19    15   ar
    33    13    14    1
    34    30    31    1
@<TRIPOS>MOLECULE
*****
 31 34 0 0 0
SMALL
GASTEIGER

@<TRIPOS>ATOM
      1 C         143.1596  138.9281  159.8559 C.ar    1  UNL1        0.2437
      2 C         143.2624  137.7681  160.8014 C.ar    1  UNL1        0.0608
      3 C         142.9677  137.9606  162.2595 C.ar    1  UNL1        0.0258
      4 C         142.5703  139.3131  162.7722 C.ar    1  UNL1        0.1060
      5 N         142.4675  140.4731  161.8267 N.ar    1  UNL1       -0.1450
      6 N         142.7621  140.2806  160.3686 N.ar    1  UNL1       -0.1103
      7 C         142.2756  139.5057  164.2303 C.ar    1  UNL1        0.0532
      8 C         143.2232  138.9725  165.2637 C.ar    1  UNL1        0.0061
      9 C         142.9285  139.1650  166.7218 C.ar    1  UNL1        0.0194
     10 C         141.6863  139.8907  167.1465 C.ar    1  UNL1        0.0859
     11 C         140.7388  140.4238  166.1131 C.ar    1  UNL1        0.0558
     12 C         141.0335  140.2313  164.6550 C.ar    1  UNL1        0.1366
     13 O         140.0859  140.7645  163.6216 O.3     1  UNL1       -0.5054
     14 H         139.3099  141.2178  163.8869 H       1  UNL1        0.2922
     15 N         141.3917  140.0832  168.6047 N.ar    1  UNL1       -0.2280
     16 C         142.3590  140.5692  169.6430 C.ar    1  UNL1        0.1020
     17 C         141.6431  140.6099  170.9605 C.ar    1  UNL1        0.0431
     18 C         140.2334  140.1491  170.7365 C.ar    1  UNL1        0.1221
     19 N         140.0780  139.8236  169.2805 N.ar    1  UNL1       -0.1635
     20 O         143.4542  138.7356  158.3978 O.3     1  UNL1       -0.4629
     21 C         139.1095  137.0578  155.5319 C.3     1  UNL1        0.0159
     22 C         140.3090  137.5033  156.3147 C.3     1  UNL1        0.0454
     23 C         139.4313  138.7092  156.4743 C.3     1  UNL1        0.0159
     24 C         141.2037  138.3675  157.1528 C.3     1  UNL1        0.0580
     25 C         142.5595  137.8712  157.5596 C.3     1  UNL1        0.1702
     26 C         143.0207  136.5107  157.1282 C.3     1  UNL1        0.0580
     27 C         142.1260  135.6464  156.2900 C.3     1  UNL1        0.0454
     28 C         143.3144  134.7407  156.4215 C.3     1  UNL1        0.0159
     29 C         141.6441  134.4676  155.4975 C.3     1  UNL1        0.0159
     30 N         140.7702  136.1427  155.8833 N.3     1  UNL1       -0.3014
     31 H         140.0909  135.4732  156.2448 H       1  UNL1        0.1231
@<TRIPOS>BOND
     1    21    22    1
     2    22    23    1
     3    22    24    1
     4    24    25    1
     5    25    20    1
     6    20     1    1
     7     1     2   ar
     8     2     3   ar
     9     3     4   ar
    10     4     7    1
    11     7     8   ar
    12     8     9   ar
    13     9    10   ar
    14    10    15    1
    15    15    16   ar
    16    16    17   ar
    17    17    18   ar
    18    18    19   ar
    19    10    11   ar
    20    11    12   ar
    21    12    13    1
    22     4     5   ar
    23     5     6   ar
    24    25    26    1
    25    26    27    1
    26    27    28    1
    27    27    29    1
    28    27    30    1
    29    30    22    1
    30     6     1   ar
    31    12     7   ar
    32    19    15   ar
    33    13    14    1
    34    30    31    1
@<TRIPOS>MOLECULE
*****
 31 34 0 0 0
SMALL
GASTEIGER

@<TRIPOS>ATOM
      1 C         142.2491  136.3663  156.4471 C.ar    1  UNL1        0.2437
      2 C         140.8406  136.8453  156.2557 C.ar    1  UNL1        0.0608
      3 C         140.2407  137.8180  157.2273 C.ar    1  UNL1        0.0258
      4 C         141.0493  138.3117  158.3903 C.ar    1  UNL1        0.1060
      5 N         142.4578  137.8326  158.5816 N.ar    1  UNL1       -0.1450
      6 N         143.0577  136.8599  157.6100 N.ar    1  UNL1       -0.1103
      7 C         140.4494  139.2844  159.3618 C.ar    1  UNL1        0.0532
      8 C         139.8452  140.5644  158.8652 C.ar    1  UNL1        0.0061
      9 C         139.2453  141.5371  159.8368 C.ar    1  UNL1        0.0194
     10 C         139.2496  141.2298  161.3050 C.ar    1  UNL1        0.0859
     11 C         139.8538  139.9498  161.8016 C.ar    1  UNL1        0.0558
     12 C         140.4537  138.9771  160.8300 C.ar    1  UNL1        0.1366
     13 O         141.0579  137.6971  161.3267 O.3     1  UNL1       -0.5054
     14 H         141.0606  137.5052  162.2438 H       1  UNL1        0.2922
     15 N         138.6497  142.2025  162.2766 N.ar    1  UNL1       -0.2280
     16 C         138.4338  141.9654  163.7419 C.ar    1  UNL1        0.1020
     17 C         137.8110  143.1995  164.3244 C.ar    1  UNL1        0.0431
     18 C         137.6421  144.1993  163.2190 C.ar    1  UNL1        0.1221
     19 N         138.1604  143.5831  161.9534 N.ar    1  UNL1       -0.1635
     20 O         142.8490  135.3935  155.4755 O.3     1  UNL1       -0.4629
     21 C         144.5205  130.7295  157.7902 C.3     1  UNL1        0.0159
     22 C         144.0501  132.0003  157.1468 C.3     1  UNL1        0.0454
     23 C         145.1697  132.5343  157.9903 C.3     1  UNL1        0.0159
     24 C         143.9684  133.4564  156.7964 C.3     1  UNL1        0.0580
     25 C         142.9306  133.9373  155.8260 C.3     1  UNL1        0.1702
     26 C         141.9744  132.9620  155.2060 C.3     1  UNL1        0.0580
     27 C         142.0561  131.5058  155.5564 C.3     1  UNL1        0.0454
     28 C         140.9081  131.4774  154.5913 C.3     1  UNL1        0.0159
     29 C         141.7390  130.0398  155.5717 C.3     1  UNL1        0.0159
     30 N         143.0939  131.0249  156.5269 N.3     1  UNL1       -0.3014
     31 H         143.6579  130.3317  156.0353 H       1  UNL1        0.1231
@<TRIPOS>BOND
     1    21    22    1
     2    22    23    1
     3    22    24    1
     4    24    25    1
     5    25    20    1
     6    20     1    1
     7     1     2   ar
     8     2     3   ar
     9     3     4   ar
    10     4     7    1
    11     7     8   ar
    12     8     9   ar
    13     9    10   ar
    14    10    15    1
    15    15    16   ar
    16    16    17   ar
    17    17    18   ar
    18    18    19   ar
    19    10    11   ar
    20    11    12   ar
    21    12    13    1
    22     4     5   ar
    23     5     6   ar
    24    25    26    1
    25    26    27    1
    26    27    28    1
    27    27    29    1
    28    27    30    1
    29    30    22    1
    30     6     1   ar
    31    12     7   ar
    32    19    15   ar
    33    13    14    1
    34    30    31    1
@<TRIPOS>MOLECULE
*****
 31 34 0 0 0
SMALL
GASTEIGER

@<TRIPOS>ATOM
      1 C         142.3929  140.9905  164.6668 C.ar    1  UNL1        0.2437
      2 C         142.4235  140.2702  163.3514 C.ar    1  UNL1        0.0608
      3 C         141.9711  140.9685  162.1033 C.ar    1  UNL1        0.0258
      4 C         141.4881  142.3871  162.1707 C.ar    1  UNL1        0.1060
      5 N         141.4575  143.1073  163.4861 N.ar    1  UNL1       -0.1450
      6 N         141.9099  142.4090  164.7342 N.ar    1  UNL1       -0.1103
      7 C         141.0357  143.0854  160.9226 C.ar    1  UNL1        0.0532
      8 C         140.0631  142.4145  159.9984 C.ar    1  UNL1        0.0061
      9 C         139.6107  143.1128  158.7503 C.ar    1  UNL1        0.0194
     10 C         140.1308  144.4820  158.4264 C.ar    1  UNL1        0.0859
     11 C         141.1033  145.1528  159.3507 C.ar    1  UNL1        0.0558
     12 C         141.5557  144.4545  160.5987 C.ar    1  UNL1        0.1366
     13 O         142.5283  145.1254  161.5230 O.3     1  UNL1       -0.5054
     14 H         142.8532  145.9807  161.3206 H       1  UNL1        0.2922
     15 N         139.6784  145.1803  157.1784 N.ar    1  UNL1       -0.2280
     16 C         138.9979  144.5380  156.0061 C.ar    1  UNL1        0.1020
     17 C         138.7260  145.6042  154.9866 C.ar    1  UNL1        0.0431
     18 C         139.2385  146.9055  155.5289 C.ar    1  UNL1        0.1221
     19 N         139.8271  146.6434  156.8834 N.ar    1  UNL1       -0.1635
     20 O         142.8453  140.2922  165.9149 O.3     1  UNL1       -0.4629
     21 C         142.0577  142.1730  170.9891 C.3     1  UNL1        0.0159
     22 C         142.2580  141.6507  169.5972 C.3     1  UNL1        0.0454
     23 C         143.5954  142.2885  169.8311 C.3     1  UNL1        0.0159
     24 C         142.9227  141.3500  168.2867 C.3     1  UNL1        0.0580
     25 C         142.1805  140.5929  167.2255 C.3     1  UNL1        0.1702
     26 C         140.7736  140.1365  167.4750 C.3     1  UNL1        0.0580
     27 C         140.1089  140.4372  168.7856 C.3     1  UNL1        0.0454
     28 C         139.0024  139.6951  168.0966 C.3     1  UNL1        0.0159
     29 C         139.0599  140.4802  169.8569 C.3     1  UNL1        0.0159
     30 N         140.8511  141.1944  169.8467 N.3     1  UNL1       -0.3014
     31 H         140.8778  140.5952  170.6717 H       1  UNL1        0.1231
@<TRIPOS>BOND
     1    21    22    1
     2    22    23    1
     3    22    24    1
     4    24    25    1
     5    25    20    1
     6    20     1    1
     7     1     2   ar
     8     2     3   ar
     9     3     4   ar
    10     4     7    1
    11     7     8   ar
    12     8     9   ar
    13     9    10   ar
    14    10    15    1
    15    15    16   ar
    16    16    17   ar
    17    17    18   ar
    18    18    19   ar
    19    10    11   ar
    20    11    12   ar
    21    12    13    1
    22     4     5   ar
    23     5     6   ar
    24    25    26    1
    25    26    27    1
    26    27    28    1
    27    27    29    1
    28    27    30    1
    29    30    22    1
    30     6     1   ar
    31    12     7   ar
    32    19    15   ar
    33    13    14    1
    34    30    31    1
@<TRIPOS>MOLECULE
*****
 31 34 0 0 0
SMALL
GASTEIGER

@<TRIPOS>ATOM
      1 C         138.9643  139.8013  166.8106 C.ar    1  UNL1        0.2437
      2 C         139.4556  140.9467  165.9758 C.ar    1  UNL1        0.0608
      3 C         139.5001  140.8208  164.4817 C.ar    1  UNL1        0.0258
      4 C         139.0533  139.5496  163.8225 C.ar    1  UNL1        0.1060
      5 N         138.5620  138.4044  164.6573 N.ar    1  UNL1       -0.1450
      6 N         138.5175  138.5302  166.1514 N.ar    1  UNL1       -0.1103
      7 C         139.0978  139.4238  162.3285 C.ar    1  UNL1        0.0532
      8 C         140.1985  138.6424  161.6741 C.ar    1  UNL1        0.0061
      9 C         140.2430  138.5166  160.1800 C.ar    1  UNL1        0.0194
     10 C         139.1868  139.1721  159.3404 C.ar    1  UNL1        0.0859
     11 C         138.0863  139.9534  159.9948 C.ar    1  UNL1        0.0558
     12 C         138.0418  140.0792  161.4888 C.ar    1  UNL1        0.1366
     13 O         136.9411  140.8606  162.1432 O.3     1  UNL1       -0.5054
     14 H         136.2814  141.2700  161.6187 H       1  UNL1        0.2922
     15 N         139.2314  139.0462  157.8463 N.ar    1  UNL1       -0.2280
     16 C         140.1696  138.1774  157.0622 C.ar    1  UNL1        0.1020
     17 C         139.8636  138.3613  155.6054 C.ar    1  UNL1        0.0431
     18 C         138.7361  139.3438  155.4890 C.ar    1  UNL1        0.1221
     19 N         138.3454  139.7671  156.8740 N.ar    1  UNL1       -0.1635
     20 O         138.9198  139.9272  168.3047 O.3     1  UNL1       -0.4629
     21 C         142.3683  143.4211  170.7140 C.3     1  UNL1        0.0159
     22 C         141.4326  142.4499  170.0573 C.3     1  UNL1        0.0454
     23 C         140.6960  143.7321  169.8055 C.3     1  UNL1        0.0159
     24 C         140.2412  141.9239  169.3131 C.3     1  UNL1        0.0580
     25 C         140.1113  140.4531  169.0488 C.3     1  UNL1        0.1702
     26 C         141.1728  139.5082  169.5287 C.3     1  UNL1        0.0580
     27 C         142.3643  140.0342  170.2728 C.3     1  UNL1        0.0454
     28 C         142.6872  138.5694  170.2662 C.3     1  UNL1        0.0159
     29 C         143.6679  140.0514  171.0147 C.3     1  UNL1        0.0159
     30 N         142.4942  141.5050  170.5371 N.3     1  UNL1       -0.3014
     31 H         143.3703  141.8048  170.1095 H       1  UNL1        0.1231
@<TRIPOS>BOND
     1    21    22    1
     2    22    23    1
     3    22    24    1
     4    24    25    1
     5    25    20    1
     6    20     1    1
     7     1     2   ar
     8     2     3   ar
     9     3     4   ar
    10     4     7    1
    11     7     8   ar
    12     8     9   ar
    13     9    10   ar
    14    10    15    1
    15    15    16   ar
    16    16    17   ar
    17    17    18   ar
    18    18    19   ar
    19    10    11   ar
    20    11    12   ar
    21    12    13    1
    22     4     5   ar
    23     5     6   ar
    24    25    26    1
    25    26    27    1
    26    27    28    1
    27    27    29    1
    28    27    30    1
    29    30    22    1
    30     6     1   ar
    31    12     7   ar
    32    19    15   ar
    33    13    14    1
    34    30    31    1
@<TRIPOS>MOLECULE
*****
 31 34 0 0 0
SMALL
GASTEIGER

@<TRIPOS>ATOM
      1 C         138.9172  139.5913  166.5509 C.ar    1  UNL1        0.2437
      2 C         139.1866  140.8548  165.7884 C.ar    1  UNL1        0.0608
      3 C         139.1980  140.8377  164.2886 C.ar    1  UNL1        0.0258
      4 C         138.9401  139.5571  163.5511 C.ar    1  UNL1        0.1060
      5 N         138.6708  138.2937  164.3135 N.ar    1  UNL1       -0.1450
      6 N         138.6594  138.3108  165.8134 N.ar    1  UNL1       -0.1103
      7 C         138.9515  139.5400  162.0513 C.ar    1  UNL1        0.0532
      8 C         138.1779  140.5707  161.2836 C.ar    1  UNL1        0.0061
      9 C         138.1893  140.5537  159.7837 C.ar    1  UNL1        0.0194
     10 C         138.9743  139.5059  159.0516 C.ar    1  UNL1        0.0859
     11 C         139.7478  138.4752  159.8193 C.ar    1  UNL1        0.0558
     12 C         139.7364  138.4923  161.3191 C.ar    1  UNL1        0.1366
     13 O         140.5100  137.4616  162.0868 O.3     1  UNL1       -0.5054
     14 H         141.0003  136.8071  161.6294 H       1  UNL1        0.2922
     15 N         138.9857  139.4888  157.5517 N.ar    1  UNL1       -0.2280
     16 C         140.0789  138.9384  156.6845 C.ar    1  UNL1        0.1020
     17 C         139.6748  139.1285  155.2525 C.ar    1  UNL1        0.0431
     18 C         138.3318  139.7964  155.2347 C.ar    1  UNL1        0.1221
     19 N         137.9059  140.0191  156.6557 N.ar    1  UNL1       -0.1635
     20 O         138.9058  139.6084  168.0507 O.3     1  UNL1       -0.4629
     21 C         143.5523  140.1835  170.8763 C.3     1  UNL1        0.0159
     22 C         142.2754  140.0425  170.1020 C.3     1  UNL1        0.0454
     23 C         142.6999  138.6054  170.1681 C.3     1  UNL1        0.0159
     24 C         141.1459  139.4025  169.3507 C.3     1  UNL1        0.0580
     25 C         140.0354  140.2485  168.8021 C.3     1  UNL1        0.1702
     26 C         140.0543  141.7346  169.0048 C.3     1  UNL1        0.0580
     27 C         141.1838  142.3746  169.7562 C.3     1  UNL1        0.0454
     28 C         140.3670  143.5895  169.4291 C.3     1  UNL1        0.0159
     29 C         142.0296  143.4366  170.3939 C.3     1  UNL1        0.0159
     30 N         142.2943  141.5286  170.3048 N.3     1  UNL1       -0.3014
     31 H         142.3160  141.6881  171.3120 H       1  UNL1        0.1231
@<TRIPOS>BOND
     1    21    22    1
     2    22    23    1
     3    22    24    1
     4    24    25    1
     5    25    20    1
     6    20     1    1
     7     1     2   ar
     8     2     3   ar
     9     3     4   ar
    10     4     7    1
    11     7     8   ar
    12     8     9   ar
    13     9    10   ar
    14    10    15    1
    15    15    16   ar
    16    16    17   ar
    17    17    18   ar
    18    18    19   ar
    19    10    11   ar
    20    11    12   ar
    21    12    13    1
    22     4     5   ar
    23     5     6   ar
    24    25    26    1
    25    26    27    1
    26    27    28    1
    27    27    29    1
    28    27    30    1
    29    30    22    1
    30     6     1   ar
    31    12     7   ar
    32    19    15   ar
    33    13    14    1
    34    30    31    1
@<TRIPOS>MOLECULE
*****
 31 34 0 0 0
SMALL
GASTEIGER

@<TRIPOS>ATOM
      1 C         141.8951  136.3393  156.2444 C.ar    1  UNL1        0.2437
      2 C         142.8111  137.0318  157.2095 C.ar    1  UNL1        0.0608
      3 C         142.2552  138.0123  158.1993 C.ar    1  UNL1        0.0258
      4 C         140.7832  138.3001  158.2239 C.ar    1  UNL1        0.1060
      5 N         139.8673  137.6076  157.2588 N.ar    1  UNL1       -0.1450
      6 N         140.4233  136.6272  156.2690 N.ar    1  UNL1       -0.1103
      7 C         140.2272  139.2806  159.2137 C.ar    1  UNL1        0.0532
      8 C         140.9000  139.4696  160.5410 C.ar    1  UNL1        0.0061
      9 C         140.3440  140.4500  161.5308 C.ar    1  UNL1        0.0194
     10 C         139.1153  141.2414  161.1932 C.ar    1  UNL1        0.0859
     11 C         138.4426  141.0524  159.8659 C.ar    1  UNL1        0.0558
     12 C         138.9986  140.0720  158.8762 C.ar    1  UNL1        0.1366
     13 O         138.3258  139.8830  157.5488 O.3     1  UNL1       -0.5054
     14 H         137.5583  140.3774  157.3380 H       1  UNL1        0.2922
     15 N         138.5593  142.2219  162.1830 N.ar    1  UNL1       -0.2280
     16 C         138.2784  141.9497  163.6311 C.ar    1  UNL1        0.1020
     17 C         137.7321  143.2062  164.2415 C.ar    1  UNL1        0.0431
     18 C         137.6754  144.2551  163.1707 C.ar    1  UNL1        0.1221
     19 N         138.1866  143.6467  161.8984 N.ar    1  UNL1       -0.1635
     20 O         142.4511  135.3588  155.2546 O.3     1  UNL1       -0.4629
     21 C         141.6064  129.9589  155.4326 C.3     1  UNL1        0.0159
     22 C         141.8507  131.4384  155.3951 C.3     1  UNL1        0.0454
     23 C         140.7187  131.3364  154.4162 C.3     1  UNL1        0.0159
     24 C         141.7018  132.8824  155.0177 C.3     1  UNL1        0.0580
     25 C         142.6000  133.9147  155.6321 C.3     1  UNL1        0.1702
     26 C         143.6472  133.5030  156.6240 C.3     1  UNL1        0.0580
     27 C         143.7961  132.0589  157.0015 C.3     1  UNL1        0.0454
     28 C         144.8763  132.6624  157.8493 C.3     1  UNL1        0.0159
     29 C         144.3201  130.8245  157.6734 C.3     1  UNL1        0.0159
     30 N         142.8978  131.0266  156.3870 N.3     1  UNL1       -0.3014
     31 H         142.4105  130.5655  157.1553 H       1  UNL1        0.1231
@<TRIPOS>BOND
     1    21    22    1
     2    22    23    1
     3    22    24    1
     4    24    25    1
     5    25    20    1
     6    20     1    1
     7     1     2   ar
     8     2     3   ar
     9     3     4   ar
    10     4     7    1
    11     7     8   ar
    12     8     9   ar
    13     9    10   ar
    14    10    15    1
    15    15    16   ar
    16    16    17   ar
    17    17    18   ar
    18    18    19   ar
    19    10    11   ar
    20    11    12   ar
    21    12    13    1
    22     4     5   ar
    23     5     6   ar
    24    25    26    1
    25    26    27    1
    26    27    28    1
    27    27    29    1
    28    27    30    1
    29    30    22    1
    30     6     1   ar
    31    12     7   ar
    32    19    15   ar
    33    13    14    1
    34    30    31    1
@<TRIPOS>MOLECULE
*****
 31 34 0 0 0
SMALL
GASTEIGER

@<TRIPOS>ATOM
      1 C         141.5406  145.0948  160.4114 C.ar    1  UNL1        0.2437
      2 C         140.5431  145.4645  161.4689 C.ar    1  UNL1        0.0608
      3 C         140.6366  144.8520  162.8350 C.ar    1  UNL1        0.0258
      4 C         141.7275  143.8697  163.1435 C.ar    1  UNL1        0.1060
      5 N         142.7249  143.5000  162.0859 N.ar    1  UNL1       -0.1450
      6 N         142.6315  144.1125  160.7199 N.ar    1  UNL1       -0.1103
      7 C         141.8209  143.2571  164.5095 C.ar    1  UNL1        0.0532
      8 C         140.5712  142.9351  165.2741 C.ar    1  UNL1        0.0061
      9 C         140.6647  142.3226  166.6402 C.ar    1  UNL1        0.0194
     10 C         142.0078  142.0321  167.2416 C.ar    1  UNL1        0.0859
     11 C         143.2574  142.3541  166.4769 C.ar    1  UNL1        0.0558
     12 C         143.1640  142.9666  165.1109 C.ar    1  UNL1        0.1366
     13 O         144.4137  143.2886  164.3462 O.3     1  UNL1       -0.5054
     14 H         145.2527  143.1071  164.7219 H       1  UNL1        0.2922
     15 N         142.1013  141.4195  168.6076 N.ar    1  UNL1       -0.2280
     16 C         142.6342  140.0543  168.9271 C.ar    1  UNL1        0.1020
     17 C         142.5405  139.8557  170.4110 C.ar    1  UNL1        0.0431
     18 C         141.9496  141.0982  171.0085 C.ar    1  UNL1        0.1221
     19 N         141.6782  142.0647  169.8940 N.ar    1  UNL1       -0.1635
     20 O         141.4472  145.7073  159.0453 O.3     1  UNL1       -0.4629
     21 C         137.9793  145.5188  154.8212 C.3     1  UNL1        0.0159
     22 C         138.9271  145.5542  155.9833 C.3     1  UNL1        0.0454
     23 C         139.0669  146.9639  155.4901 C.3     1  UNL1        0.0159
     24 C         139.9234  146.0792  156.9741 C.3     1  UNL1        0.0580
     25 C         140.4508  145.1822  158.0545 C.3     1  UNL1        0.1702
     26 C         139.9820  143.7602  158.1441 C.3     1  UNL1        0.0580
     27 C         138.9857  143.2352  157.1533 C.3     1  UNL1        0.0454
     28 C         139.1919  142.0078  157.9905 C.3     1  UNL1        0.0159
     29 C         138.0610  142.2840  156.4532 C.3     1  UNL1        0.0159
     30 N         138.4583  144.1322  156.0729 N.3     1  UNL1       -0.3014
     31 H         137.4448  144.1628  156.1842 H       1  UNL1        0.1231
@<TRIPOS>BOND
     1    21    22    1
     2    22    23    1
     3    22    24    1
     4    24    25    1
     5    25    20    1
     6    20     1    1
     7     1     2   ar
     8     2     3   ar
     9     3     4   ar
    10     4     7    1
    11     7     8   ar
    12     8     9   ar
    13     9    10   ar
    14    10    15    1
    15    15    16   ar
    16    16    17   ar
    17    17    18   ar
    18    18    19   ar
    19    10    11   ar
    20    11    12   ar
    21    12    13    1
    22     4     5   ar
    23     5     6   ar
    24    25    26    1
    25    26    27    1
    26    27    28    1
    27    27    29    1
    28    27    30    1
    29    30    22    1
    30     6     1   ar
    31    12     7   ar
    32    19    15   ar
    33    13    14    1
    34    30    31    1
@<TRIPOS>MOLECULE
*****
 31 34 0 0 0
SMALL
GASTEIGER

@<TRIPOS>ATOM
      1 C         141.6629  141.7520  164.6882 C.ar    1  UNL1        0.2437
      2 C         140.6272  142.8243  164.5220 C.ar    1  UNL1        0.0608
      3 C         140.3899  143.4350  163.1726 C.ar    1  UNL1        0.0258
      4 C         141.1882  142.9734  161.9895 C.ar    1  UNL1        0.1060
      5 N         142.2239  141.9011  162.1558 N.ar    1  UNL1       -0.1450
      6 N         142.4612  141.2904  163.5052 N.ar    1  UNL1       -0.1103
      7 C         140.9509  143.5841  160.6402 C.ar    1  UNL1        0.0532
      8 C         140.7053  145.0587  160.5171 C.ar    1  UNL1        0.0061
      9 C         140.4680  145.6694  159.1677 C.ar    1  UNL1        0.0194
     10 C         140.4762  144.8054  157.9415 C.ar    1  UNL1        0.0859
     11 C         140.7218  143.3308  158.0647 C.ar    1  UNL1        0.0558
     12 C         140.9591  142.7201  159.4140 C.ar    1  UNL1        0.1366
     13 O         141.2047  141.2455  159.5372 O.3     1  UNL1       -0.5054
     14 H         141.2098  140.7058  158.7712 H       1  UNL1        0.2922
     15 N         140.2389  145.4161  156.5922 N.ar    1  UNL1       -0.2280
     16 C         139.6341  146.7631  156.3280 C.ar    1  UNL1        0.1020
     17 C         139.5861  146.9666  154.8427 C.ar    1  UNL1        0.0431
     18 C         140.1612  145.7452  154.1888 C.ar    1  UNL1        0.1221
     19 N         140.5646  144.7870  155.2700 N.ar    1  UNL1       -0.1635
     20 O         141.9003  141.1413  166.0376 O.3     1  UNL1       -0.4629
     21 C         138.4585  140.1273  170.1644 C.3     1  UNL1        0.0159
     22 C         139.3937  140.3949  169.0226 C.3     1  UNL1        0.0454
     23 C         140.0082  141.2714  170.0734 C.3     1  UNL1        0.0159
     24 C         140.5423  140.9668  168.2456 C.3     1  UNL1        0.0580
     25 C         140.7516  140.5693  166.8145 C.3     1  UNL1        0.1702
     26 C         139.8124  139.5999  166.1603 C.3     1  UNL1        0.0580
     27 C         138.6638  139.0280  166.9372 C.3     1  UNL1        0.0454
     28 C         138.4482  138.3501  165.6166 C.3     1  UNL1        0.0159
     29 C         137.4403  138.2207  167.2555 C.3     1  UNL1        0.0159
     30 N         138.4545  139.4255  168.3683 N.3     1  UNL1       -0.3014
     31 H         138.4854  138.5679  168.9196 H       1  UNL1        0.1231
@<TRIPOS>BOND
     1    21    22    1
     2    22    23    1
     3    22    24    1
     4    24    25    1
     5    25    20    1
     6    20     1    1
     7     1     2   ar
     8     2     3   ar
     9     3     4   ar
    10     4     7    1
    11     7     8   ar
    12     8     9   ar
    13     9    10   ar
    14    10    15    1
    15    15    16   ar
    16    16    17   ar
    17    17    18   ar
    18    18    19   ar
    19    10    11   ar
    20    11    12   ar
    21    12    13    1
    22     4     5   ar
    23     5     6   ar
    24    25    26    1
    25    26    27    1
    26    27    28    1
    27    27    29    1
    28    27    30    1
    29    30    22    1
    30     6     1   ar
    31    12     7   ar
    32    19    15   ar
    33    13    14    1
    34    30    31    1
