@<TRIPOS>MOLECULE
*****
 30 33 0 0 0
SMALL
GASTEIGER

@<TRIPOS>ATOM
      1 C         139.9699  139.9654  167.1898 C.ar    1  UNL1        0.1488
      2 C         138.7074  139.1981  166.9303 C.ar    1  UNL1        0.0390
      3 C         137.9283  139.4398  165.6715 C.ar    1  UNL1        0.0417
      4 C         138.4117  140.4487  164.6723 C.ar    1  UNL1        0.1640
      5 N         137.8591  140.8982  163.3522 N.ar    1  UNL1       -0.2234
      6 C         138.7801  141.9433  162.7959 C.ar    1  UNL1        0.1197
      7 C         139.9019  142.1396  163.7721 C.ar    1  UNL1        0.1037
      8 N         139.6742  141.2159  164.9318 N.ar    1  UNL1       -0.2096
      9 N         140.4533  140.9742  166.1906 N.ar    1  UNL1       -0.1489
     10 C         141.0499  143.0924  163.6161 C.ar    1  UNL1        0.0223
     11 C         140.8390  144.5622  163.8288 C.ar    1  UNL1        0.0017
     12 C         141.9869  145.5149  163.6728 C.ar    1  UNL1        0.0032
     13 C         143.3459  144.9980  163.3041 C.ar    1  UNL1        0.0372
     14 C         143.5568  143.5282  163.0913 C.ar    1  UNL1        0.1469
     15 C         142.4089  142.5755  163.2474 C.ar    1  UNL1        0.0387
     16 O         144.9159  143.0112  162.7226 O.3     1  UNL1       -0.4045
     17 C         145.4205  141.7329  163.3237 C.3     1  UNL1        0.5753
     18 F         145.9252  140.4546  163.9249 F       1  UNL1       -0.1328
     19 F         145.1436  141.0175  162.0347 F       1  UNL1       -0.1328
     20 F         145.6973  142.4484  164.6127 F       1  UNL1       -0.1328
     21 N         140.7491  139.7237  168.4486 N.pl3   1  UNL1       -0.3184
     22 H         140.8040  138.8166  168.8271 H       1  UNL1        0.1482
     23 O         143.5316  144.2859  171.1769 O.3     1  UNL1       -0.3845
     24 C         142.8360  143.1454  170.4949 C.3     1  UNL1        0.1106
     25 C         143.6245  141.9589  170.0254 C.3     1  UNL1        0.0309
     26 C         142.9289  140.8183  169.3433 C.3     1  UNL1        0.0220
     27 C         141.4447  140.8643  169.1307 C.3     1  UNL1        0.0706
     28 C         140.6562  142.0508  169.6002 C.3     1  UNL1        0.0220
     29 C         141.3518  143.1914  170.2823 C.3     1  UNL1        0.0309
     30 H         144.4815  144.0980  171.2335 H       1  UNL1        0.2103
@<TRIPOS>BOND
     1    24    23    1
     2    24    25    1
     3    25    26    1
     4    26    27    1
     5    27    21    1
     6    21     1    1
     7     1     2   ar
     8     2     3   ar
     9     3     4   ar
    10     4     5   ar
    11     5     6   ar
    12     6     7   ar
    13     7    10    1
    14    10    11   ar
    15    11    12   ar
    16    12    13   ar
    17    13    14   ar
    18    14    16    1
    19    16    17    1
    20    17    18    1
    21    17    19    1
    22    17    20    1
    23    14    15   ar
    24     7     8   ar
    25     8     9   ar
    26    27    28    1
    27    28    29    1
    28    29    24    1
    29     9     1   ar
    30     8     4   ar
    31    15    10   ar
    32    23    30    1
    33    21    22    1
@<TRIPOS>MOLECULE
*****
 30 33 0 0 0
SMALL
GASTEIGER

@<TRIPOS>ATOM
      1 C         139.5284  139.6125  167.4311 C.ar    1  UNL1        0.1488
      2 C         138.2512  138.9859  166.9555 C.ar    1  UNL1        0.0390
      3 C         138.0696  138.6641  165.5018 C.ar    1  UNL1        0.0417
      4 C         139.1652  138.9689  164.5236 C.ar    1  UNL1        0.1640
      5 N         139.2723  138.7659  163.0412 N.ar    1  UNL1       -0.2234
      6 C         140.6157  139.2672  162.6006 C.ar    1  UNL1        0.1197
      7 C         141.3388  139.7799  163.8107 C.ar    1  UNL1        0.1037
      8 N         140.4423  139.5956  164.9991 N.ar    1  UNL1       -0.2096
      9 N         140.6239  139.9174  166.4529 N.ar    1  UNL1       -0.1489
     10 C         142.7164  140.3729  163.8291 C.ar    1  UNL1        0.0223
     11 C         143.8899  139.5312  164.2349 C.ar    1  UNL1        0.0017
     12 C         145.2676  140.1242  164.2533 C.ar    1  UNL1        0.0032
     13 C         145.4719  141.5588  163.8660 C.ar    1  UNL1        0.0372
     14 C         144.2985  142.4005  163.4602 C.ar    1  UNL1        0.1469
     15 C         142.9208  141.8075  163.4418 C.ar    1  UNL1        0.0387
     16 O         144.5027  143.8352  163.0728 O.3     1  UNL1       -0.4045
     17 C         143.5009  144.8730  163.4840 C.3     1  UNL1        0.5753
     18 F         142.4990  145.9109  163.8953 F       1  UNL1       -0.1328
     19 F         144.1653  144.9833  164.8243 F       1  UNL1       -0.1328
     20 F         142.8365  144.7627  162.1437 F       1  UNL1       -0.1328
     21 N         139.7100  139.9344  168.8849 N.pl3   1  UNL1       -0.3184
     22 H         139.0944  139.5559  169.5535 H       1  UNL1        0.1482
     23 O         144.1884  143.5281  170.6252 O.3     1  UNL1       -0.3845
     24 C         143.0688  142.6297  170.1901 C.3     1  UNL1        0.1106
     25 C         143.3109  141.1595  170.0176 C.3     1  UNL1        0.0309
     26 C         142.1913  140.2610  169.5825 C.3     1  UNL1        0.0220
     27 C         140.8296  140.8328  169.3199 C.3     1  UNL1        0.0706
     28 C         140.5876  142.3031  169.4924 C.3     1  UNL1        0.0220
     29 C         141.7072  143.2015  169.9275 C.3     1  UNL1        0.0309
     30 H         144.9942  143.0030  170.7507 H       1  UNL1        0.2103
@<TRIPOS>BOND
     1    24    23    1
     2    24    25    1
     3    25    26    1
     4    26    27    1
     5    27    21    1
     6    21     1    1
     7     1     2   ar
     8     2     3   ar
     9     3     4   ar
    10     4     5   ar
    11     5     6   ar
    12     6     7   ar
    13     7    10    1
    14    10    11   ar
    15    11    12   ar
    16    12    13   ar
    17    13    14   ar
    18    14    16    1
    19    16    17    1
    20    17    18    1
    21    17    19    1
    22    17    20    1
    23    14    15   ar
    24     7     8   ar
    25     8     9   ar
    26    27    28    1
    27    28    29    1
    28    29    24    1
    29     9     1   ar
    30     8     4   ar
    31    15    10   ar
    32    23    30    1
    33    21    22    1
@<TRIPOS>MOLECULE
*****
 30 33 0 0 0
SMALL
GASTEIGER

@<TRIPOS>ATOM
      1 C         140.0918  142.9074  165.2954 C.ar    1  UNL1        0.1488
      2 C         138.9160  143.8147  165.5055 C.ar    1  UNL1        0.0390
      3 C         138.5541  144.8278  164.4603 C.ar    1  UNL1        0.0417
      4 C         139.3682  144.9337  163.2048 C.ar    1  UNL1        0.1640
      5 N         139.2531  145.8286  162.0065 N.ar    1  UNL1       -0.2234
      6 C         140.3579  145.4744  161.0557 C.ar    1  UNL1        0.1197
      7 C         141.1557  144.3606  161.6664 C.ar    1  UNL1        0.1037
      8 N         140.5441  144.0265  162.9947 N.ar    1  UNL1       -0.2096
      9 N         140.9059  143.0133  164.0399 N.ar    1  UNL1       -0.1489
     10 C         142.3547  143.6974  161.0561 C.ar    1  UNL1        0.0223
     11 C         142.4618  143.5663  159.5657 C.ar    1  UNL1        0.0017
     12 C         143.6609  142.9031  158.9554 C.ar    1  UNL1        0.0032
     13 C         144.7528  142.3710  159.8354 C.ar    1  UNL1        0.0372
     14 C         144.6457  142.5021  161.3258 C.ar    1  UNL1        0.1469
     15 C         143.4467  143.1653  161.9361 C.ar    1  UNL1        0.0387
     16 O         145.7377  141.9700  162.2059 O.3     1  UNL1       -0.4045
     17 C         145.3984  141.0956  163.3766 C.3     1  UNL1        0.5753
     18 F         145.0590  140.2212  164.5472 F       1  UNL1       -0.1328
     19 F         145.9360  142.1384  164.3112 F       1  UNL1       -0.1328
     20 F         144.8607  140.0529  162.4418 F       1  UNL1       -0.1328
     21 N         140.4537  141.8942  166.3406 N.pl3   1  UNL1       -0.3184
     22 H         140.2521  140.9419  166.1937 H       1  UNL1        0.1482
     23 O         143.1300  143.6457  171.4170 O.3     1  UNL1       -0.3845
     24 C         142.4609  143.2078  170.1479 C.3     1  UNL1        0.1106
     25 C         143.2380  142.4483  169.1139 C.3     1  UNL1        0.0309
     26 C         142.5689  142.0104  167.8447 C.3     1  UNL1        0.0220
     27 C         141.1228  142.3321  167.6097 C.3     1  UNL1        0.0706
     28 C         140.3457  143.0916  168.6438 C.3     1  UNL1        0.0220
     29 C         141.0148  143.5295  169.9129 C.3     1  UNL1        0.0309
     30 H         144.0568  143.3595  171.4093 H       1  UNL1        0.2103
@<TRIPOS>BOND
     1    24    23    1
     2    24    25    1
     3    25    26    1
     4    26    27    1
     5    27    21    1
     6    21     1    1
     7     1     2   ar
     8     2     3   ar
     9     3     4   ar
    10     4     5   ar
    11     5     6   ar
    12     6     7   ar
    13     7    10    1
    14    10    11   ar
    15    11    12   ar
    16    12    13   ar
    17    13    14   ar
    18    14    16    1
    19    16    17    1
    20    17    18    1
    21    17    19    1
    22    17    20    1
    23    14    15   ar
    24     7     8   ar
    25     8     9   ar
    26    27    28    1
    27    28    29    1
    28    29    24    1
    29     9     1   ar
    30     8     4   ar
    31    15    10   ar
    32    23    30    1
    33    21    22    1
@<TRIPOS>MOLECULE
*****
 30 33 0 0 0
SMALL
GASTEIGER

@<TRIPOS>ATOM
      1 C         142.3701  139.7830  165.2142 C.ar    1  UNL1        0.1488
      2 C         143.7201  139.1359  165.3082 C.ar    1  UNL1        0.0390
      3 C         144.8658  139.6703  164.5010 C.ar    1  UNL1        0.0417
      4 C         144.6616  140.8519  163.5997 C.ar    1  UNL1        0.1640
      5 N         145.5958  141.5941  162.6906 N.ar    1  UNL1       -0.2234
      6 C         144.8232  142.6999  162.0348 C.ar    1  UNL1        0.1197
      7 C         143.4115  142.6411  162.5385 C.ar    1  UNL1        0.1037
      8 N         143.3116  141.4989  163.5057 N.ar    1  UNL1       -0.2096
      9 N         142.1659  140.9645  164.3129 N.ar    1  UNL1       -0.1489
     10 C         142.2956  143.5626  162.1442 C.ar    1  UNL1        0.0223
     11 C         142.2096  144.0777  160.7381 C.ar    1  UNL1        0.0017
     12 C         141.0936  144.9993  160.3438 C.ar    1  UNL1        0.0032
     13 C         140.0637  145.4058  161.3557 C.ar    1  UNL1        0.0372
     14 C         140.1497  144.8907  162.7618 C.ar    1  UNL1        0.1469
     15 C         141.2656  143.9691  163.1561 C.ar    1  UNL1        0.0387
     16 O         139.1197  145.2972  163.7738 O.3     1  UNL1       -0.4045
     17 C         138.1994  144.2690  164.3619 C.3     1  UNL1        0.5753
     18 F         137.2791  143.2407  164.9500 F       1  UNL1       -0.1328
     19 F         137.4296  144.2221  163.0753 F       1  UNL1       -0.1328
     20 F         138.9692  144.3159  165.6485 F       1  UNL1       -0.1328
     21 N         141.2243  139.2485  166.0214 N.pl3   1  UNL1       -0.3184
     22 H         140.5559  138.6620  165.5991 H       1  UNL1        0.1482
     23 O         140.7147  140.6858  171.8244 O.3     1  UNL1       -0.3845
     24 C         140.8421  140.3265  170.3737 C.3     1  UNL1        0.1106
     25 C         142.1597  139.8599  169.8295 C.3     1  UNL1        0.0309
     26 C         142.2871  139.5005  168.3787 C.3     1  UNL1        0.0220
     27 C         141.0969  139.6079  167.4721 C.3     1  UNL1        0.0706
     28 C         139.7793  140.0745  168.0164 C.3     1  UNL1        0.0220
     29 C         139.6519  140.4338  169.4671 C.3     1  UNL1        0.0309
     30 H         141.5700  140.5612  172.2646 H       1  UNL1        0.2103
@<TRIPOS>BOND
     1    24    23    1
     2    24    25    1
     3    25    26    1
     4    26    27    1
     5    27    21    1
     6    21     1    1
     7     1     2   ar
     8     2     3   ar
     9     3     4   ar
    10     4     5   ar
    11     5     6   ar
    12     6     7   ar
    13     7    10    1
    14    10    11   ar
    15    11    12   ar
    16    12    13   ar
    17    13    14   ar
    18    14    16    1
    19    16    17    1
    20    17    18    1
    21    17    19    1
    22    17    20    1
    23    14    15   ar
    24     7     8   ar
    25     8     9   ar
    26    27    28    1
    27    28    29    1
    28    29    24    1
    29     9     1   ar
    30     8     4   ar
    31    15    10   ar
    32    23    30    1
    33    21    22    1
@<TRIPOS>MOLECULE
*****
 30 33 0 0 0
SMALL
GASTEIGER

@<TRIPOS>ATOM
      1 C         143.0585  142.4001  167.1258 C.ar    1  UNL1        0.1488
      2 C         143.2357  142.1487  168.5939 C.ar    1  UNL1        0.0390
      3 C         142.2348  141.3157  169.3383 C.ar    1  UNL1        0.0417
      4 C         141.0566  140.7342  168.6147 C.ar    1  UNL1        0.1640
      5 N         139.9147  139.8798  169.0798 N.ar    1  UNL1       -0.2234
      6 C         139.0319  139.6032  167.8992 C.ar    1  UNL1        0.1197
      7 C         139.6280  140.2866  166.7044 C.ar    1  UNL1        0.1037
      8 N         140.8793  140.9856  167.1466 N.ar    1  UNL1       -0.2096
      9 N         141.8803  141.8186  166.4022 N.ar    1  UNL1       -0.1489
     10 C         139.0707  140.2734  165.3118 C.ar    1  UNL1        0.0223
     11 C         139.1156  139.0142  164.4979 C.ar    1  UNL1        0.0017
     12 C         138.5583  139.0010  163.1054 C.ar    1  UNL1        0.0032
     13 C         137.9561  140.2469  162.5266 C.ar    1  UNL1        0.0372
     14 C         137.9112  141.5061  163.3405 C.ar    1  UNL1        0.1469
     15 C         138.4685  141.5193  164.7331 C.ar    1  UNL1        0.0387
     16 O         137.3090  142.7521  162.7618 O.3     1  UNL1       -0.4045
     17 C         138.0581  144.0498  162.8321 C.3     1  UNL1        0.5753
     18 F         138.8073  145.3475  162.9025 F       1  UNL1       -0.1328
     19 F         138.7936  143.6933  161.5743 F       1  UNL1       -0.1328
     20 F         137.3226  144.4062  164.0899 F       1  UNL1       -0.1328
     21 N         144.0595  143.2331  166.3813 N.pl3   1  UNL1       -0.3184
     22 H         144.5923  143.9079  166.8609 H       1  UNL1        0.1482
     23 O         144.8164  142.4522  160.4807 O.3     1  UNL1       -0.3845
     24 C         144.6272  142.6474  161.9559 C.3     1  UNL1        0.1106
     25 C         143.9413  143.8794  162.4674 C.3     1  UNL1        0.0309
     26 C         143.7521  144.0747  163.9426 C.3     1  UNL1        0.0220
     27 C         144.2487  143.0379  164.9062 C.3     1  UNL1        0.0706
     28 C         144.9346  141.8058  164.3945 C.3     1  UNL1        0.0220
     29 C         145.1238  141.6106  162.9194 C.3     1  UNL1        0.0309
     30 H         144.4409  143.2087  160.0037 H       1  UNL1        0.2103
@<TRIPOS>BOND
     1    24    23    1
     2    24    25    1
     3    25    26    1
     4    26    27    1
     5    27    21    1
     6    21     1    1
     7     1     2   ar
     8     2     3   ar
     9     3     4   ar
    10     4     5   ar
    11     5     6   ar
    12     6     7   ar
    13     7    10    1
    14    10    11   ar
    15    11    12   ar
    16    12    13   ar
    17    13    14   ar
    18    14    16    1
    19    16    17    1
    20    17    18    1
    21    17    19    1
    22    17    20    1
    23    14    15   ar
    24     7     8   ar
    25     8     9   ar
    26    27    28    1
    27    28    29    1
    28    29    24    1
    29     9     1   ar
    30     8     4   ar
    31    15    10   ar
    32    23    30    1
    33    21    22    1
@<TRIPOS>MOLECULE
*****
 30 33 0 0 0
SMALL
GASTEIGER

@<TRIPOS>ATOM
      1 C         140.8510  139.1551  165.3051 C.ar    1  UNL1        0.1488
      2 C         140.0784  137.8974  165.0384 C.ar    1  UNL1        0.0390
      3 C         139.0116  137.8819  163.9841 C.ar    1  UNL1        0.0417
      4 C         138.7174  139.1241  163.1965 C.ar    1  UNL1        0.1640
      5 N         137.7313  139.4090  162.1026 N.ar    1  UNL1       -0.2234
      6 C         137.8945  140.8428  161.6933 C.ar    1  UNL1        0.1197
      7 C         138.9815  141.4440  162.5341 C.ar    1  UNL1        0.1037
      8 N         139.4901  140.3818  163.4632 N.ar    1  UNL1       -0.2096
      9 N         140.5569  140.3973  164.5175 N.ar    1  UNL1       -0.1489
     10 C         139.4735  142.8590  162.4592 C.ar    1  UNL1        0.0223
     11 C         138.4938  143.9948  162.4611 C.ar    1  UNL1        0.0017
     12 C         138.9858  145.4099  162.3861 C.ar    1  UNL1        0.0032
     13 C         140.4575  145.6891  162.3092 C.ar    1  UNL1        0.0372
     14 C         141.4373  144.5533  162.3073 C.ar    1  UNL1        0.1469
     15 C         140.9452  143.1383  162.3823 C.ar    1  UNL1        0.0387
     16 O         142.9091  144.8325  162.2304 O.3     1  UNL1       -0.4045
     17 C         143.7870  144.5607  163.4159 C.3     1  UNL1        0.5753
     18 F         144.6649  144.2890  164.6015 F       1  UNL1       -0.1328
     19 F         144.6429  143.6600  162.5756 F       1  UNL1       -0.1328
     20 F         142.9311  145.4615  164.2562 F       1  UNL1       -0.1328
     21 N         141.9179  139.1706  166.3595 N.pl3   1  UNL1       -0.3184
     22 H         142.8417  138.9205  166.1287 H       1  UNL1        0.1482
     23 O         140.5551  140.7571  171.9831 O.3     1  UNL1       -0.3845
     24 C         140.8958  140.3605  170.5772 C.3     1  UNL1        0.1106
     25 C         142.2826  139.8961  170.2442 C.3     1  UNL1        0.0309
     26 C         142.6233  139.4994  168.8382 C.3     1  UNL1        0.0220
     27 C         141.5772  139.5672  167.7654 C.3     1  UNL1        0.0706
     28 C         140.1903  140.0317  168.0985 C.3     1  UNL1        0.0220
     29 C         139.8496  140.4283  169.5044 C.3     1  UNL1        0.0309
     30 H         141.3380  140.6552  172.5466 H       1  UNL1        0.2103
@<TRIPOS>BOND
     1    24    23    1
     2    24    25    1
     3    25    26    1
     4    26    27    1
     5    27    21    1
     6    21     1    1
     7     1     2   ar
     8     2     3   ar
     9     3     4   ar
    10     4     5   ar
    11     5     6   ar
    12     6     7   ar
    13     7    10    1
    14    10    11   ar
    15    11    12   ar
    16    12    13   ar
    17    13    14   ar
    18    14    16    1
    19    16    17    1
    20    17    18    1
    21    17    19    1
    22    17    20    1
    23    14    15   ar
    24     7     8   ar
    25     8     9   ar
    26    27    28    1
    27    28    29    1
    28    29    24    1
    29     9     1   ar
    30     8     4   ar
    31    15    10   ar
    32    23    30    1
    33    21    22    1
@<TRIPOS>MOLECULE
*****
 30 33 0 0 0
SMALL
GASTEIGER

@<TRIPOS>ATOM
      1 C         142.0235  139.1509  165.4373 C.ar    1  UNL1        0.1488
      2 C         141.7253  137.6963  165.2249 C.ar    1  UNL1        0.0390
      3 C         140.5997  137.2855  164.3226 C.ar    1  UNL1        0.0417
      4 C         139.7722  138.3293  163.6328 C.ar    1  UNL1        0.1640
      5 N         138.6076  138.2273  162.6930 N.ar    1  UNL1       -0.2234
      6 C         138.1860  139.6189  162.3246 C.ar    1  UNL1        0.1197
      7 C         139.0901  140.5809  163.0368 C.ar    1  UNL1        0.1037
      8 N         140.0704  139.7839  163.8453 N.ar    1  UNL1       -0.2096
      9 N         141.1961  140.1947  164.7476 N.ar    1  UNL1       -0.1489
     10 C         139.0253  142.0772  162.9548 C.ar    1  UNL1        0.0223
     11 C         137.7267  142.7863  163.2014 C.ar    1  UNL1        0.0017
     12 C         137.6618  144.2826  163.1194 C.ar    1  UNL1        0.0032
     13 C         138.8955  145.0700  162.7909 C.ar    1  UNL1        0.0372
     14 C         140.1942  144.3609  162.5443 C.ar    1  UNL1        0.1469
     15 C         140.2590  142.8646  162.6263 C.ar    1  UNL1        0.0387
     16 O         141.4280  145.1482  162.2158 O.3     1  UNL1       -0.4045
     17 C         142.6490  145.0236  163.0781 C.3     1  UNL1        0.5753
     18 F         143.8701  144.8989  163.9405 F       1  UNL1       -0.1328
     19 F         141.9633  145.8021  164.1615 F       1  UNL1       -0.1328
     20 F         143.3347  144.2450  161.9947 F       1  UNL1       -0.1328
     21 N         143.1492  139.5617  166.3396 N.pl3   1  UNL1       -0.3184
     22 H         144.0820  139.4170  166.0601 H       1  UNL1        0.1482
     23 O         141.9669  142.0873  171.6522 O.3     1  UNL1       -0.3845
     24 C         142.2624  141.4560  170.3240 C.3     1  UNL1        0.1106
     25 C         142.2848  139.9620  170.1923 C.3     1  UNL1        0.0309
     26 C         142.5804  139.3305  168.8641 C.3     1  UNL1        0.0220
     27 C         142.8536  140.1931  167.6678 C.3     1  UNL1        0.0706
     28 C         142.8312  141.6872  167.7996 C.3     1  UNL1        0.0220
     29 C         142.5357  142.3186  169.1277 C.3     1  UNL1        0.0309
     30 H         141.8149  141.3939  172.3132 H       1  UNL1        0.2103
@<TRIPOS>BOND
     1    24    23    1
     2    24    25    1
     3    25    26    1
     4    26    27    1
     5    27    21    1
     6    21     1    1
     7     1     2   ar
     8     2     3   ar
     9     3     4   ar
    10     4     5   ar
    11     5     6   ar
    12     6     7   ar
    13     7    10    1
    14    10    11   ar
    15    11    12   ar
    16    12    13   ar
    17    13    14   ar
    18    14    16    1
    19    16    17    1
    20    17    18    1
    21    17    19    1
    22    17    20    1
    23    14    15   ar
    24     7     8   ar
    25     8     9   ar
    26    27    28    1
    27    28    29    1
    28    29    24    1
    29     9     1   ar
    30     8     4   ar
    31    15    10   ar
    32    23    30    1
    33    21    22    1
@<TRIPOS>MOLECULE
*****
 30 33 0 0 0
SMALL
GASTEIGER

@<TRIPOS>ATOM
      1 C         139.2178  139.8298  167.7635 C.ar    1  UNL1        0.1488
      2 C         138.9475  140.1114  169.2117 C.ar    1  UNL1        0.0390
      3 C         139.9354  140.8997  170.0196 C.ar    1  UNL1        0.0417
      4 C         141.1937  141.4063  169.3791 C.ar    1  UNL1        0.1640
      5 N         142.3435  142.2044  169.9186 N.ar    1  UNL1       -0.2234
      6 C         143.3244  142.4160  168.8037 C.ar    1  UNL1        0.1197
      7 C         142.7808  141.7487  167.5751 C.ar    1  UNL1        0.1037
      8 N         141.4639  141.1247  167.9308 N.ar    1  UNL1       -0.2096
      9 N         140.4760  140.3365  167.1230 N.ar    1  UNL1       -0.1489
     10 C         143.4386  141.7118  166.2276 C.ar    1  UNL1        0.0223
     11 C         143.9205  142.9828  165.5932 C.ar    1  UNL1        0.0017
     12 C         144.5783  142.9460  164.2457 C.ar    1  UNL1        0.0032
     13 C         144.7541  141.6382  163.5324 C.ar    1  UNL1        0.0372
     14 C         144.2722  140.3673  164.1667 C.ar    1  UNL1        0.1469
     15 C         143.6144  140.4041  165.5143 C.ar    1  UNL1        0.0387
     16 O         144.4480  139.0594  163.4534 O.3     1  UNL1       -0.4045
     17 C         143.3932  138.5758  162.5029 C.3     1  UNL1        0.5753
     18 F         142.3384  138.0922  161.5522 F       1  UNL1       -0.1328
     19 F         142.6200  138.0017  163.6529 F       1  UNL1       -0.1328
     20 F         144.1665  139.1499  161.3528 F       1  UNL1       -0.1328
     21 N         138.2298  139.0416  166.9556 N.pl3   1  UNL1       -0.3184
     22 H         137.4384  138.6502  167.3912 H       1  UNL1        0.1482
     23 O         139.1009  138.2740  161.0690 O.3     1  UNL1       -0.3845
     24 C         138.8831  138.4659  162.5406 C.3     1  UNL1        0.1106
     25 C         139.3012  137.3969  163.5063 C.3     1  UNL1        0.0309
     26 C         139.0834  137.5888  164.9780 C.3     1  UNL1        0.0220
     27 C         138.4476  138.8497  165.4839 C.3     1  UNL1        0.0706
     28 C         138.0295  139.9186  164.5182 C.3     1  UNL1        0.0220
     29 C         138.2472  139.7267  163.0466 C.3     1  UNL1        0.0309
     30 H         139.5188  137.4125  160.9136 H       1  UNL1        0.2103
@<TRIPOS>BOND
     1    24    23    1
     2    24    25    1
     3    25    26    1
     4    26    27    1
     5    27    21    1
     6    21     1    1
     7     1     2   ar
     8     2     3   ar
     9     3     4   ar
    10     4     5   ar
    11     5     6   ar
    12     6     7   ar
    13     7    10    1
    14    10    11   ar
    15    11    12   ar
    16    12    13   ar
    17    13    14   ar
    18    14    16    1
    19    16    17    1
    20    17    18    1
    21    17    19    1
    22    17    20    1
    23    14    15   ar
    24     7     8   ar
    25     8     9   ar
    26    27    28    1
    27    28    29    1
    28    29    24    1
    29     9     1   ar
    30     8     4   ar
    31    15    10   ar
    32    23    30    1
    33    21    22    1
@<TRIPOS>MOLECULE
*****
 30 33 0 0 0
SMALL
GASTEIGER

@<TRIPOS>ATOM
      1 C         140.2723  143.1540  165.1274 C.ar    1  UNL1        0.1488
      2 C         139.1007  144.0660  165.3411 C.ar    1  UNL1        0.0390
      3 C         138.6967  145.0321  164.2672 C.ar    1  UNL1        0.0417
      4 C         139.4641  145.0862  162.9796 C.ar    1  UNL1        0.1640
      5 N         139.3016  145.9283  161.7489 N.ar    1  UNL1       -0.2234
      6 C         140.3727  145.5367  160.7745 C.ar    1  UNL1        0.1197
      7 C         141.1972  144.4526  161.4030 C.ar    1  UNL1        0.1037
      8 N         140.6357  144.1742  162.7658 N.ar    1  UNL1       -0.2096
      9 N         141.0397  143.2081  163.8397 N.ar    1  UNL1       -0.1489
     10 C         142.3762  143.7672  160.7784 C.ar    1  UNL1        0.0223
     11 C         142.4864  143.6761  159.2853 C.ar    1  UNL1        0.0017
     12 C         143.6654  142.9907  158.6607 C.ar    1  UNL1        0.0032
     13 C         144.7343  142.3965  159.5291 C.ar    1  UNL1        0.0372
     14 C         144.6242  142.4877  161.0223 C.ar    1  UNL1        0.1469
     15 C         143.4451  143.1730  161.6469 C.ar    1  UNL1        0.0387
     16 O         145.6931  141.8935  161.8909 O.3     1  UNL1       -0.4045
     17 C         145.3176  141.1351  163.1295 C.3     1  UNL1        0.5753
     18 F         144.9422  140.3768  164.3681 F       1  UNL1       -0.1328
     19 F         144.7394  140.0398  162.2835 F       1  UNL1       -0.1328
     20 F         145.8960  142.2306  163.9754 F       1  UNL1       -0.1328
     21 N         140.6764  142.1878  166.2013 N.pl3   1  UNL1       -0.3184
     22 H         141.5429  142.2923  166.6568 H       1  UNL1        0.1482
     23 O         137.0122  137.6862  167.7207 O.3     1  UNL1       -0.3845
     24 C         137.9282  138.8116  167.3409 C.3     1  UNL1        0.1106
     25 C         138.7211  139.5224  168.3973 C.3     1  UNL1        0.0309
     26 C         139.6372  140.6478  168.0175 C.3     1  UNL1        0.0220
     27 C         139.7604  141.0624  166.5812 C.3     1  UNL1        0.0706
     28 C         138.9674  140.3516  165.5247 C.3     1  UNL1        0.0220
     29 C         138.0514  139.2262  165.9046 C.3     1  UNL1        0.0309
     30 H         137.0504  137.5479  168.6800 H       1  UNL1        0.2103
@<TRIPOS>BOND
     1    24    23    1
     2    24    25    1
     3    25    26    1
     4    26    27    1
     5    27    21    1
     6    21     1    1
     7     1     2   ar
     8     2     3   ar
     9     3     4   ar
    10     4     5   ar
    11     5     6   ar
    12     6     7   ar
    13     7    10    1
    14    10    11   ar
    15    11    12   ar
    16    12    13   ar
    17    13    14   ar
    18    14    16    1
    19    16    17    1
    20    17    18    1
    21    17    19    1
    22    17    20    1
    23    14    15   ar
    24     7     8   ar
    25     8     9   ar
    26    27    28    1
    27    28    29    1
    28    29    24    1
    29     9     1   ar
    30     8     4   ar
    31    15    10   ar
    32    23    30    1
    33    21    22    1
