@<TRIPOS>MOLECULE
*****
 38 40 0 0 0
SMALL
GASTEIGER

@<TRIPOS>ATOM
      1 N         138.9368  138.8684  164.0250 N.3     1  UNL1       -0.2664
      2 C         140.0580  138.0038  164.5203 C.3     1  UNL1        0.1058
      3 C         141.2803  137.8031  163.6742 C.3     1  UNL1        0.1700
      4 O         141.3654  136.6277  162.7462 O.3     1  UNL1       -0.3793
      5 H         140.5532  136.1019  162.8151 H       1  UNL1        0.2106
      6 C         142.4175  138.7778  163.7562 C.3     1  UNL1        0.2358
      7 O         143.3068  138.7929  164.9640 O.3     1  UNL1       -0.4728
      8 C         142.6739  141.8701  168.1859 C.ar    1  UNL1        0.0646
      9 C         142.4180  140.4202  168.4728 C.ar    1  UNL1        0.0190
     10 C         142.6289  139.3945  167.3989 C.ar    1  UNL1        0.0382
     11 C         143.0959  139.8186  166.0380 C.ar    1  UNL1        0.1388
     12 C         143.3518  141.2685  165.7510 C.ar    1  UNL1        0.0382
     13 C         143.1409  142.2942  166.8250 C.ar    1  UNL1        0.0190
     14 N         142.4630  142.8958  169.2598 N.pl3   1  UNL1       -0.2187
     15 H         143.1768  143.5395  169.4728 H       1  UNL1        0.1734
     16 C         139.8659  142.9858  170.7589 C.3     1  UNL1        0.1996
     17 S         141.1644  142.9408  170.0093 S.O2    1  UNL1        0.0558
     18 O         141.8824  142.5769  171.2750 O.2     1  UNL1       -0.1544
     19 O         140.4465  143.3047  168.7436 O.2     1  UNL1       -0.1544
     20 C         138.4783  138.7591  162.6010 C.3     1  UNL1        0.0772
     21 C         139.3703  139.2236  161.4881 C.3     1  UNL1        0.0437
     22 C         139.6227  140.6891  161.2912 C.ar    1  UNL1       -0.0199
     23 C         138.7266  141.4907  160.3943 C.ar    1  UNL1       -0.0033
     24 C         138.9791  142.9561  160.1975 C.ar    1  UNL1        0.0119
     25 C         140.1276  143.6200  160.8976 C.ar    1  UNL1        0.0682
     26 CL        140.3800  145.0855  160.7007 Cl      1  UNL1       -0.0814
     27 C         141.0237  142.8184  161.7945 C.ar    1  UNL1        0.0679
     28 CL        142.1722  143.4823  162.4946 Cl      1  UNL1       -0.0814
     29 C         140.7712  141.3530  161.9913 C.ar    1  UNL1        0.0080
     30 C         138.2740  139.8421  164.9537 C.3     1  UNL1        0.1022
     31 C         138.5156  141.3139  164.7943 C.ar    1  UNL1        0.0276
     32 C         139.6564  141.9691  165.5150 C.ar    1  UNL1        0.0001
     33 C         139.8981  143.4409  165.3556 C.ar    1  UNL1       -0.0001
     34 C         138.9989  144.2575  164.4755 C.ar    1  UNL1        0.0031
     35 C         137.8581  143.6024  163.7548 C.ar    1  UNL1        0.0363
     36 C         137.6165  142.1306  163.9142 C.ar    1  UNL1        0.1309
     37 O         136.4757  141.4755  163.1936 O.3     1  UNL1       -0.5058
     38 H         135.9140  141.9856  162.6438 H       1  UNL1        0.2922
@<TRIPOS>BOND
     1    16    17    1
     2    17    18    2
     3    17    19    2
     4    17    14    1
     5    14     8    1
     6     8     9   ar
     7     9    10   ar
     8    10    11   ar
     9    11     7    1
    10     7     6    1
    11     6     3    1
    12     3     4    1
    13     3     2    1
    14     2     1    1
    15     1    20    1
    16    20    21    1
    17    21    22    1
    18    22    23   ar
    19    23    24   ar
    20    24    25   ar
    21    25    26    1
    22    25    27   ar
    23    27    28    1
    24    27    29   ar
    25     1    30    1
    26    30    31    1
    27    31    32   ar
    28    32    33   ar
    29    33    34   ar
    30    34    35   ar
    31    35    36   ar
    32    36    37    1
    33    11    12   ar
    34    12    13   ar
    35    13     8   ar
    36    29    22   ar
    37    36    31   ar
    38    14    15    1
    39     4     5    1
    40    37    38    1
@<TRIPOS>MOLECULE
*****
 38 40 0 0 0
SMALL
GASTEIGER

@<TRIPOS>ATOM
      1 N         142.0886  142.8538  161.2908 N.3     1  UNL1       -0.2664
      2 C         143.5664  143.0584  161.4467 C.3     1  UNL1        0.1058
      3 C         144.0985  143.8136  162.6285 C.3     1  UNL1        0.1700
      4 O         144.0047  145.3101  162.6663 O.3     1  UNL1       -0.3793
      5 H         143.5768  145.6279  161.8558 H       1  UNL1        0.2106
      6 C         144.7245  143.0722  163.7724 C.3     1  UNL1        0.2358
      7 O         144.2519  141.6916  164.1196 O.3     1  UNL1       -0.4728
      8 C         141.0527  141.1253  167.2333 C.ar    1  UNL1        0.0646
      9 C         141.1811  142.4386  166.5201 C.ar    1  UNL1        0.0190
     10 C         142.2475  142.6274  165.4823 C.ar    1  UNL1        0.0382
     11 C         143.1855  141.5029  165.1575 C.ar    1  UNL1        0.1388
     12 C         143.0571  140.1895  165.8706 C.ar    1  UNL1        0.0382
     13 C         141.9907  140.0007  166.9085 C.ar    1  UNL1        0.0190
     14 N         139.9863  140.9365  168.2711 N.pl3   1  UNL1       -0.2187
     15 H         139.0611  140.7422  167.9965 H       1  UNL1        0.1734
     16 C         140.6730  141.1510  171.1836 C.3     1  UNL1        0.1996
     17 S         140.3296  141.0438  169.7273 S.O2    1  UNL1        0.0558
     18 O         140.4193  139.5491  169.8163 O.2     1  UNL1       -0.1544
     19 O         140.2400  142.5384  169.6384 O.2     1  UNL1       -0.1544
     20 C         141.5424  141.4760  161.0600 C.3     1  UNL1        0.0772
     21 C         142.0942  140.3120  161.8286 C.3     1  UNL1        0.0437
     22 C         141.2163  139.5614  162.7858 C.ar    1  UNL1       -0.0199
     23 C         141.4578  138.1028  163.0388 C.ar    1  UNL1       -0.0033
     24 C         140.5799  137.3523  163.9959 C.ar    1  UNL1        0.0119
     25 C         139.4607  138.0604  164.7000 C.ar    1  UNL1        0.0682
     26 CL        138.5828  137.3098  165.6572 Cl      1  UNL1       -0.0814
     27 C         139.2192  139.5190  164.4470 C.ar    1  UNL1        0.0679
     28 CL        138.0999  140.2271  165.1511 Cl      1  UNL1       -0.0814
     29 C         140.0971  140.2695  163.4899 C.ar    1  UNL1        0.0080
     30 C         141.1570  144.0271  161.3658 C.3     1  UNL1        0.1022
     31 C         140.0594  144.0491  162.3879 C.ar    1  UNL1        0.0276
     32 C         138.8109  143.2480  162.1651 C.ar    1  UNL1        0.0001
     33 C         137.7133  143.2700  163.1873 C.ar    1  UNL1       -0.0001
     34 C         137.8642  144.0931  164.4322 C.ar    1  UNL1        0.0031
     35 C         139.1126  144.8941  164.6550 C.ar    1  UNL1        0.0363
     36 C         140.2102  144.8721  163.6328 C.ar    1  UNL1        0.1309
     37 O         141.4587  145.6731  163.8556 O.3     1  UNL1       -0.5058
     38 H         141.5529  146.1873  164.6332 H       1  UNL1        0.2922
@<TRIPOS>BOND
     1    16    17    1
     2    17    18    2
     3    17    19    2
     4    17    14    1
     5    14     8    1
     6     8     9   ar
     7     9    10   ar
     8    10    11   ar
     9    11     7    1
    10     7     6    1
    11     6     3    1
    12     3     4    1
    13     3     2    1
    14     2     1    1
    15     1    20    1
    16    20    21    1
    17    21    22    1
    18    22    23   ar
    19    23    24   ar
    20    24    25   ar
    21    25    26    1
    22    25    27   ar
    23    27    28    1
    24    27    29   ar
    25     1    30    1
    26    30    31    1
    27    31    32   ar
    28    32    33   ar
    29    33    34   ar
    30    34    35   ar
    31    35    36   ar
    32    36    37    1
    33    11    12   ar
    34    12    13   ar
    35    13     8   ar
    36    29    22   ar
    37    36    31   ar
    38    14    15    1
    39     4     5    1
    40    37    38    1
@<TRIPOS>MOLECULE
*****
 38 40 0 0 0
SMALL
GASTEIGER

@<TRIPOS>ATOM
      1 N         137.9922  142.6214  162.4550 N.3     1  UNL1       -0.2664
      2 C         137.5197  141.4149  163.2108 C.3     1  UNL1        0.1058
      3 C         137.8933  140.0408  162.7392 C.3     1  UNL1        0.1700
      4 O         137.1138  139.3886  161.6360 O.3     1  UNL1       -0.3793
      5 H         136.4083  139.9859  161.3419 H       1  UNL1        0.2106
      6 C         139.0466  139.3188  163.3708 C.3     1  UNL1        0.2358
      7 O         138.9109  138.7535  164.7535 O.3     1  UNL1       -0.4728
      8 C         141.9236  139.8138  167.9236 C.ar    1  UNL1        0.0646
      9 C         140.4761  140.1544  168.1206 C.ar    1  UNL1        0.0190
     10 C         139.4719  139.8009  167.0639 C.ar    1  UNL1        0.0382
     11 C         139.9151  139.1069  165.8102 C.ar    1  UNL1        0.1388
     12 C         141.3626  138.7664  165.6131 C.ar    1  UNL1        0.0382
     13 C         142.3668  139.1198  166.6698 C.ar    1  UNL1        0.0190
     14 N         142.9278  140.1673  168.9802 N.pl3   1  UNL1       -0.2187
     15 H         143.6673  139.5497  169.1828 H       1  UNL1        0.1734
     16 C         142.6830  142.7561  170.4764 C.3     1  UNL1        0.1996
     17 S         142.8054  141.4617  169.7283 S.O2    1  UNL1        0.0558
     18 O         142.3163  140.7178  170.9355 O.2     1  UNL1       -0.1544
     19 O         143.2945  142.2056  168.5211 O.2     1  UNL1       -0.1544
     20 C         137.7912  143.9923  163.0295 C.3     1  UNL1        0.0772
     21 C         138.5194  144.3971  164.2768 C.3     1  UNL1        0.0437
     22 C         139.9647  144.0359  164.4522 C.ar    1  UNL1       -0.0199
     23 C         140.3416  142.7964  165.2082 C.ar    1  UNL1       -0.0033
     24 C         141.7869  142.4353  165.3835 C.ar    1  UNL1        0.0119
     25 C         142.8552  143.3136  164.8027 C.ar    1  UNL1        0.0682
     26 CL        144.3005  142.9524  164.9781 Cl      1  UNL1       -0.0814
     27 C         142.4783  144.5531  164.0467 C.ar    1  UNL1        0.0679
     28 CL        143.5466  145.4314  163.4660 Cl      1  UNL1       -0.0814
     29 C         141.0330  144.9142  163.8714 C.ar    1  UNL1        0.0080
     30 C         138.6657  142.4569  161.1248 C.3     1  UNL1        0.1022
     31 C         140.1444  142.6765  161.0006 C.ar    1  UNL1        0.0276
     32 C         141.1022  141.6690  161.5642 C.ar    1  UNL1        0.0001
     33 C         142.5808  141.8886  161.4399 C.ar    1  UNL1       -0.0001
     34 C         143.1016  143.1158  160.7522 C.ar    1  UNL1        0.0031
     35 C         142.1438  144.1233  160.1887 C.ar    1  UNL1        0.0363
     36 C         140.6652  143.9036  160.3129 C.ar    1  UNL1        0.1309
     37 O         139.7073  144.9111  159.7495 O.3     1  UNL1       -0.5058
     38 H         140.0326  145.6776  159.3199 H       1  UNL1        0.2922
@<TRIPOS>BOND
     1    16    17    1
     2    17    18    2
     3    17    19    2
     4    17    14    1
     5    14     8    1
     6     8     9   ar
     7     9    10   ar
     8    10    11   ar
     9    11     7    1
    10     7     6    1
    11     6     3    1
    12     3     4    1
    13     3     2    1
    14     2     1    1
    15     1    20    1
    16    20    21    1
    17    21    22    1
    18    22    23   ar
    19    23    24   ar
    20    24    25   ar
    21    25    26    1
    22    25    27   ar
    23    27    28    1
    24    27    29   ar
    25     1    30    1
    26    30    31    1
    27    31    32   ar
    28    32    33   ar
    29    33    34   ar
    30    34    35   ar
    31    35    36   ar
    32    36    37    1
    33    11    12   ar
    34    12    13   ar
    35    13     8   ar
    36    29    22   ar
    37    36    31   ar
    38    14    15    1
    39     4     5    1
    40    37    38    1
@<TRIPOS>MOLECULE
*****
 38 40 0 0 0
SMALL
GASTEIGER

@<TRIPOS>ATOM
      1 N         140.1108  141.8334  160.7273 N.3     1  UNL1       -0.2664
      2 C         138.6270  141.6555  160.8556 C.3     1  UNL1        0.1058
      3 C         137.8849  142.3276  161.9726 C.3     1  UNL1        0.1700
      4 O         137.6021  143.7992  161.9066 O.3     1  UNL1       -0.3793
      5 H         137.9641  144.1613  161.0827 H       1  UNL1        0.2106
      6 C         137.4255  141.5280  163.1557 C.3     1  UNL1        0.2358
      7 O         138.2070  140.3265  163.5979 O.3     1  UNL1       -0.4728
      8 C         139.5418  139.9618  167.8799 C.ar    1  UNL1        0.0646
      9 C         138.4356  139.0910  167.3624 C.ar    1  UNL1        0.0190
     10 C         137.9907  139.2125  165.9351 C.ar    1  UNL1        0.0382
     11 C         138.6519  140.2049  165.0253 C.ar    1  UNL1        0.1388
     12 C         139.7581  141.0758  165.5428 C.ar    1  UNL1        0.0382
     13 C         140.2031  140.9542  166.9701 C.ar    1  UNL1        0.0190
     14 N         139.9868  139.8403  169.3072 N.pl3   1  UNL1       -0.2187
     15 H         140.1265  138.9507  169.7052 H       1  UNL1        0.1734
     16 C         140.4508  142.3078  170.9491 C.3     1  UNL1        0.1996
     17 S         140.2188  141.0740  170.1281 S.O2    1  UNL1        0.0558
     18 O         138.7434  141.1889  170.3726 O.2     1  UNL1       -0.1544
     19 O         141.6943  140.9592  169.8837 O.2     1  UNL1       -0.1544
     20 C         140.9962  140.6371  160.5402 C.3     1  UNL1        0.0772
     21 C         140.7156  139.3711  161.2943 C.3     1  UNL1        0.0437
     22 C         141.3603  139.1338  162.6277 C.ar    1  UNL1       -0.0199
     23 C         140.9686  137.9411  163.4486 C.ar    1  UNL1       -0.0033
     24 C         141.6133  137.7038  164.7820 C.ar    1  UNL1        0.0119
     25 C         142.6498  138.6593  165.2945 C.ar    1  UNL1        0.0682
     26 CL        143.2946  138.4219  166.6280 Cl      1  UNL1       -0.0814
     27 C         143.0416  139.8520  164.4737 C.ar    1  UNL1        0.0679
     28 CL        144.0781  140.8075  164.9862 Cl      1  UNL1       -0.0814
     29 C         142.3968  140.0893  163.1403 C.ar    1  UNL1        0.0080
     30 C         140.7093  143.2076  160.7859 C.3     1  UNL1        0.1022
     31 C         141.8175  143.5024  161.7530 C.ar    1  UNL1        0.0276
     32 C         143.2471  143.3806  161.3153 C.ar    1  UNL1        0.0001
     33 C         144.3552  143.6753  162.2824 C.ar    1  UNL1       -0.0001
     34 C         144.0337  144.0918  163.6871 C.ar    1  UNL1        0.0031
     35 C         142.6041  144.2136  164.1248 C.ar    1  UNL1        0.0363
     36 C         141.4960  143.9189  163.1577 C.ar    1  UNL1        0.1309
     37 O         140.0665  144.0406  163.5953 O.3     1  UNL1       -0.5058
     38 H         139.8657  144.3008  164.4728 H       1  UNL1        0.2922
@<TRIPOS>BOND
     1    16    17    1
     2    17    18    2
     3    17    19    2
     4    17    14    1
     5    14     8    1
     6     8     9   ar
     7     9    10   ar
     8    10    11   ar
     9    11     7    1
    10     7     6    1
    11     6     3    1
    12     3     4    1
    13     3     2    1
    14     2     1    1
    15     1    20    1
    16    20    21    1
    17    21    22    1
    18    22    23   ar
    19    23    24   ar
    20    24    25   ar
    21    25    26    1
    22    25    27   ar
    23    27    28    1
    24    27    29   ar
    25     1    30    1
    26    30    31    1
    27    31    32   ar
    28    32    33   ar
    29    33    34   ar
    30    34    35   ar
    31    35    36   ar
    32    36    37    1
    33    11    12   ar
    34    12    13   ar
    35    13     8   ar
    36    29    22   ar
    37    36    31   ar
    38    14    15    1
    39     4     5    1
    40    37    38    1
@<TRIPOS>MOLECULE
*****
 38 40 0 0 0
SMALL
GASTEIGER

@<TRIPOS>ATOM
      1 N         139.3408  138.6969  164.4136 N.3     1  UNL1       -0.2664
      2 C         139.7940  137.8271  163.2787 C.3     1  UNL1        0.1058
      3 C         139.1893  137.9960  161.9164 C.3     1  UNL1        0.1700
      4 O         137.7488  137.6463  161.6866 O.3     1  UNL1       -0.3793
      5 H         137.3570  137.3289  162.5153 H       1  UNL1        0.2106
      6 C         140.0250  138.5146  160.7839 C.3     1  UNL1        0.2358
      7 O         139.6770  139.8196  160.1314 O.3     1  UNL1       -0.4728
      8 C         141.7123  143.6093  161.4529 C.ar    1  UNL1        0.0646
      9 C         141.7920  142.3783  162.3063 C.ar    1  UNL1        0.0190
     10 C         141.1135  141.1151  161.8658 C.ar    1  UNL1        0.0382
     11 C         140.3555  141.0829  160.5719 C.ar    1  UNL1        0.1388
     12 C         140.2758  142.3138  159.7185 C.ar    1  UNL1        0.0382
     13 C         140.9543  143.5770  160.1590 C.ar    1  UNL1        0.0190
     14 N         142.3907  144.8725  161.8934 N.pl3   1  UNL1       -0.2187
     15 H         142.3137  145.6885  161.3481 H       1  UNL1        0.1734
     16 C         143.9824  144.9122  164.4361 C.3     1  UNL1        0.1996
     17 S         143.1865  144.8923  163.1647 S.O2    1  UNL1        0.0558
     18 O         144.3968  144.4210  162.4145 O.2     1  UNL1       -0.1544
     19 O         141.9762  145.3637  163.9150 O.2     1  UNL1       -0.1544
     20 C         140.1361  138.7468  165.6843 C.3     1  UNL1        0.0772
     21 C         141.3859  139.5733  165.7550 C.3     1  UNL1        0.0437
     22 C         141.5831  140.5396  166.8852 C.ar    1  UNL1       -0.0199
     23 C         142.8398  141.3547  166.9645 C.ar    1  UNL1       -0.0033
     24 C         143.0369  142.3209  168.0947 C.ar    1  UNL1        0.0119
     25 C         141.9774  142.4722  169.1456 C.ar    1  UNL1        0.0682
     26 CL        142.1746  143.4386  170.2758 Cl      1  UNL1       -0.0814
     27 C         140.7206  141.6572  169.0663 C.ar    1  UNL1        0.0679
     28 CL        139.6611  141.8084  170.1172 Cl      1  UNL1       -0.0814
     29 C         140.5235  140.6909  167.9361 C.ar    1  UNL1        0.0080
     30 C         138.0921  139.5169  164.2776 C.3     1  UNL1        0.1022
     31 C         138.1868  140.9829  163.9746 C.ar    1  UNL1        0.0276
     32 C         138.8147  141.9151  164.9680 C.ar    1  UNL1        0.0001
     33 C         138.9095  143.3811  164.6649 C.ar    1  UNL1       -0.0001
     34 C         138.3764  143.9149  163.3684 C.ar    1  UNL1        0.0031
     35 C         137.7485  142.9828  162.3751 C.ar    1  UNL1        0.0363
     36 C         137.6537  141.5168  162.6781 C.ar    1  UNL1        0.1309
     37 O         137.0259  140.5846  161.6848 O.3     1  UNL1       -0.5058
     38 H         136.6928  140.9181  160.8749 H       1  UNL1        0.2922
@<TRIPOS>BOND
     1    16    17    1
     2    17    18    2
     3    17    19    2
     4    17    14    1
     5    14     8    1
     6     8     9   ar
     7     9    10   ar
     8    10    11   ar
     9    11     7    1
    10     7     6    1
    11     6     3    1
    12     3     4    1
    13     3     2    1
    14     2     1    1
    15     1    20    1
    16    20    21    1
    17    21    22    1
    18    22    23   ar
    19    23    24   ar
    20    24    25   ar
    21    25    26    1
    22    25    27   ar
    23    27    28    1
    24    27    29   ar
    25     1    30    1
    26    30    31    1
    27    31    32   ar
    28    32    33   ar
    29    33    34   ar
    30    34    35   ar
    31    35    36   ar
    32    36    37    1
    33    11    12   ar
    34    12    13   ar
    35    13     8   ar
    36    29    22   ar
    37    36    31   ar
    38    14    15    1
    39     4     5    1
    40    37    38    1
@<TRIPOS>MOLECULE
*****
 38 40 0 0 0
SMALL
GASTEIGER

@<TRIPOS>ATOM
      1 N         143.6720  139.9458  160.4358 N.3     1  UNL1       -0.2664
      2 C         143.0756  139.8059  159.0666 C.3     1  UNL1        0.1058
      3 C         142.2713  138.5882  158.7198 C.3     1  UNL1        0.1700
      4 O         142.9604  137.2780  158.4780 O.3     1  UNL1       -0.3793
      5 H         143.9178  137.3917  158.5849 H       1  UNL1        0.2106
      6 C         140.7778  138.6806  158.6147 C.3     1  UNL1        0.2358
      7 O         139.9321  138.5908  159.8503 O.3     1  UNL1       -0.4728
      8 C         138.2042  142.3258  161.6708 C.ar    1  UNL1        0.0646
      9 C         137.8914  140.9861  162.2686 C.ar    1  UNL1        0.0190
     10 C         138.4674  139.7411  161.6617 C.ar    1  UNL1        0.0382
     11 C         139.3561  139.8358  160.4571 C.ar    1  UNL1        0.1388
     12 C         139.6689  141.1754  159.8594 C.ar    1  UNL1        0.0382
     13 C         139.0930  142.4204  160.4662 C.ar    1  UNL1        0.0190
     14 N         137.6283  143.5708  162.2777 N.pl3   1  UNL1       -0.2187
     15 H         136.8190  143.9775  161.8919 H       1  UNL1        0.1734
     16 C         138.9427  144.8215  164.6668 C.3     1  UNL1        0.1996
     17 S         138.2855  144.1961  163.4722 S.O2    1  UNL1        0.0558
     18 O         139.0887  145.0819  162.5666 O.2     1  UNL1       -0.1544
     19 O         137.4822  143.3103  164.3778 O.2     1  UNL1       -0.1544
     20 C         143.9518  141.3087  160.9963 C.3     1  UNL1        0.0772
     21 C         142.8250  142.1522  161.5149 C.3     1  UNL1        0.0437
     22 C         142.5313  142.1896  162.9854 C.ar    1  UNL1       -0.0199
     23 C         143.5065  142.8288  163.9289 C.ar    1  UNL1       -0.0033
     24 C         143.2128  142.8662  165.3994 C.ar    1  UNL1        0.0119
     25 C         141.9439  142.2644  165.9263 C.ar    1  UNL1        0.0682
     26 CL        141.6502  142.3018  167.3969 Cl      1  UNL1       -0.0814
     27 C         140.9687  141.6252  164.9828 C.ar    1  UNL1        0.0679
     28 CL        139.6998  141.0233  165.5097 Cl      1  UNL1       -0.0814
     29 C         141.2624  141.5878  163.5123 C.ar    1  UNL1        0.0080
     30 C         143.9888  138.7227  161.2444 C.3     1  UNL1        0.1022
     31 C         143.5277  138.6250  162.6685 C.ar    1  UNL1        0.0276
     32 C         144.3496  139.2329  163.7663 C.ar    1  UNL1        0.0001
     33 C         143.8885  139.1352  165.1903 C.ar    1  UNL1       -0.0001
     34 C         142.6055  138.4297  165.5165 C.ar    1  UNL1        0.0031
     35 C         141.7838  137.8218  164.4188 C.ar    1  UNL1        0.0363
     36 C         142.2448  137.9195  162.9947 C.ar    1  UNL1        0.1309
     37 O         141.4231  137.3117  161.8969 O.3     1  UNL1       -0.5058
     38 H         140.6217  136.8710  162.1007 H       1  UNL1        0.2922
@<TRIPOS>BOND
     1    16    17    1
     2    17    18    2
     3    17    19    2
     4    17    14    1
     5    14     8    1
     6     8     9   ar
     7     9    10   ar
     8    10    11   ar
     9    11     7    1
    10     7     6    1
    11     6     3    1
    12     3     4    1
    13     3     2    1
    14     2     1    1
    15     1    20    1
    16    20    21    1
    17    21    22    1
    18    22    23   ar
    19    23    24   ar
    20    24    25   ar
    21    25    26    1
    22    25    27   ar
    23    27    28    1
    24    27    29   ar
    25     1    30    1
    26    30    31    1
    27    31    32   ar
    28    32    33   ar
    29    33    34   ar
    30    34    35   ar
    31    35    36   ar
    32    36    37    1
    33    11    12   ar
    34    12    13   ar
    35    13     8   ar
    36    29    22   ar
    37    36    31   ar
    38    14    15    1
    39     4     5    1
    40    37    38    1
@<TRIPOS>MOLECULE
*****
 38 40 0 0 0
SMALL
GASTEIGER

@<TRIPOS>ATOM
      1 N         141.4984  139.5553  160.4355 N.3     1  UNL1       -0.2664
      2 C         142.9258  139.2026  160.1384 C.3     1  UNL1        0.1058
      3 C         143.8437  138.7907  161.2510 C.3     1  UNL1        0.1700
      4 O         144.3286  137.3739  161.3376 O.3     1  UNL1       -0.3793
      5 H         143.9576  136.8597  160.6035 H       1  UNL1        0.2106
      6 C         144.2768  139.7957  162.2769 C.3     1  UNL1        0.2358
      7 O         144.6178  139.3486  163.6675 O.3     1  UNL1       -0.4728
      8 C         141.7196  140.0629  167.0350 C.ar    1  UNL1        0.0646
      9 C         141.5893  140.8365  165.7565 C.ar    1  UNL1        0.0190
     10 C         142.5554  140.5984  164.6340 C.ar    1  UNL1        0.0382
     11 C         143.6518  139.5867  164.7900 C.ar    1  UNL1        0.1388
     12 C         143.7820  138.8131  166.0685 C.ar    1  UNL1        0.0382
     13 C         142.8160  139.0512  167.1909 C.ar    1  UNL1        0.0190
     14 N         140.7535  140.3011  168.1575 N.pl3   1  UNL1       -0.2187
     15 H         139.7846  140.2389  167.9945 H       1  UNL1        0.1734
     16 C         141.7739  140.9668  170.8989 C.3     1  UNL1        0.1996
     17 S         141.2637  140.6339  169.5282 S.O2    1  UNL1        0.0558
     18 O         141.9522  141.8473  168.9773 O.2     1  UNL1       -0.1544
     19 O         140.5752  139.4205  170.0791 O.2     1  UNL1       -0.1544
     20 C         141.0512  140.9858  160.3753 C.3     1  UNL1        0.0772
     21 C         141.7476  142.0248  161.2033 C.3     1  UNL1        0.0437
     22 C         140.9937  142.7635  162.2692 C.ar    1  UNL1       -0.0199
     23 C         141.5320  144.0546  162.8106 C.ar    1  UNL1       -0.0033
     24 C         140.7781  144.7932  163.8765 C.ar    1  UNL1        0.0119
     25 C         139.4859  144.2406  164.4009 C.ar    1  UNL1        0.0682
     26 CL        138.7320  144.9793  165.4668 Cl      1  UNL1       -0.0814
     27 C         138.9476  142.9495  163.8594 C.ar    1  UNL1        0.0679
     28 CL        137.6555  142.3970  164.3838 Cl      1  UNL1       -0.0814
     29 C         139.7015  142.2109  162.7936 C.ar    1  UNL1        0.0080
     30 C         140.5183  138.4775  160.7929 C.3     1  UNL1        0.1022
     31 C         140.2380  138.1662  162.2332 C.ar    1  UNL1        0.0276
     32 C         141.2398  137.3977  163.0431 C.ar    1  UNL1        0.0001
     33 C         140.9595  137.0864  164.4834 C.ar    1  UNL1       -0.0001
     34 C         139.6774  137.5435  165.1138 C.ar    1  UNL1        0.0031
     35 C         138.6757  138.3120  164.3039 C.ar    1  UNL1        0.0363
     36 C         138.9560  138.6233  162.8636 C.ar    1  UNL1        0.1309
     37 O         137.9543  139.3918  162.0537 O.3     1  UNL1       -0.5058
     38 H         137.1534  139.6773  162.4475 H       1  UNL1        0.2922
@<TRIPOS>BOND
     1    16    17    1
     2    17    18    2
     3    17    19    2
     4    17    14    1
     5    14     8    1
     6     8     9   ar
     7     9    10   ar
     8    10    11   ar
     9    11     7    1
    10     7     6    1
    11     6     3    1
    12     3     4    1
    13     3     2    1
    14     2     1    1
    15     1    20    1
    16    20    21    1
    17    21    22    1
    18    22    23   ar
    19    23    24   ar
    20    24    25   ar
    21    25    26    1
    22    25    27   ar
    23    27    28    1
    24    27    29   ar
    25     1    30    1
    26    30    31    1
    27    31    32   ar
    28    32    33   ar
    29    33    34   ar
    30    34    35   ar
    31    35    36   ar
    32    36    37    1
    33    11    12   ar
    34    12    13   ar
    35    13     8   ar
    36    29    22   ar
    37    36    31   ar
    38    14    15    1
    39     4     5    1
    40    37    38    1
@<TRIPOS>MOLECULE
*****
 38 40 0 0 0
SMALL
GASTEIGER

@<TRIPOS>ATOM
      1 N         139.4595  141.0043  161.0700 N.3     1  UNL1       -0.2664
      2 C         139.9070  142.3840  161.4524 C.3     1  UNL1        0.1058
      3 C         138.9365  143.3401  162.0802 C.3     1  UNL1        0.1700
      4 O         137.5041  143.3551  161.6353 O.3     1  UNL1       -0.3793
      5 H         137.3743  142.6905  160.9408 H       1  UNL1        0.2106
      6 C         139.3985  144.2813  163.1530 C.3     1  UNL1        0.2358
      7 O         140.7250  144.0659  163.8194 O.3     1  UNL1       -0.4728
      8 C         141.1625  140.9041  166.9913 C.ar    1  UNL1        0.0646
      9 C         140.4256  142.1747  167.2955 C.ar    1  UNL1        0.0190
     10 C         140.2798  143.2286  166.2382 C.ar    1  UNL1        0.0382
     11 C         140.8708  143.0120  164.8767 C.ar    1  UNL1        0.1388
     12 C         141.6076  141.7414  164.5725 C.ar    1  UNL1        0.0382
     13 C         141.7535  140.6874  165.6298 C.ar    1  UNL1        0.0190
     14 N         141.3083  139.8501  168.0486 N.pl3   1  UNL1       -0.2187
     15 H         141.7136  138.9813  167.8249 H       1  UNL1        0.1734
     16 C         140.3648  140.3898  170.8448 C.3     1  UNL1        0.1996
     17 S         140.8366  140.1200  169.4467 S.O2    1  UNL1        0.0558
     18 O         139.4601  139.6569  169.0716 O.2     1  UNL1       -0.1544
     19 O         142.2131  140.5830  169.8217 O.2     1  UNL1       -0.1544
     20 C         140.1891  140.2491  159.9990 C.3     1  UNL1        0.0772
     21 C         141.6752  140.3954  159.8578 C.3     1  UNL1        0.0437
     22 C         142.5719  140.1016  161.0240 C.ar    1  UNL1       -0.0199
     23 C         142.3972  138.8318  161.8032 C.ar    1  UNL1       -0.0033
     24 C         143.2938  138.5381  162.9692 C.ar    1  UNL1        0.0119
     25 C         144.3651  139.5141  163.3561 C.ar    1  UNL1        0.0682
     26 CL        145.2617  139.2203  164.5223 Cl      1  UNL1       -0.0814
     27 C         144.5398  140.7839  162.5770 C.ar    1  UNL1        0.0679
     28 CL        145.6111  141.7599  162.9639 Cl      1  UNL1       -0.0814
     29 C         143.6432  141.0776  161.4109 C.ar    1  UNL1        0.0080
     30 C         138.2823  140.3798  161.7588 C.3     1  UNL1        0.1022
     31 C         138.4643  139.6911  163.0789 C.ar    1  UNL1        0.0276
     32 C         139.1478  138.3573  163.1410 C.ar    1  UNL1        0.0001
     33 C         139.3298  137.6686  164.4611 C.ar    1  UNL1       -0.0001
     34 C         138.8283  138.3138  165.7191 C.ar    1  UNL1        0.0031
     35 C         138.1449  139.6476  165.6569 C.ar    1  UNL1        0.0363
     36 C         137.9629  140.3363  164.3368 C.ar    1  UNL1        0.1309
     37 O         137.2794  141.6700  164.2746 O.3     1  UNL1       -0.5058
     38 H         136.9662  142.0730  165.0604 H       1  UNL1        0.2922
@<TRIPOS>BOND
     1    16    17    1
     2    17    18    2
     3    17    19    2
     4    17    14    1
     5    14     8    1
     6     8     9   ar
     7     9    10   ar
     8    10    11   ar
     9    11     7    1
    10     7     6    1
    11     6     3    1
    12     3     4    1
    13     3     2    1
    14     2     1    1
    15     1    20    1
    16    20    21    1
    17    21    22    1
    18    22    23   ar
    19    23    24   ar
    20    24    25   ar
    21    25    26    1
    22    25    27   ar
    23    27    28    1
    24    27    29   ar
    25     1    30    1
    26    30    31    1
    27    31    32   ar
    28    32    33   ar
    29    33    34   ar
    30    34    35   ar
    31    35    36   ar
    32    36    37    1
    33    11    12   ar
    34    12    13   ar
    35    13     8   ar
    36    29    22   ar
    37    36    31   ar
    38    14    15    1
    39     4     5    1
    40    37    38    1
@<TRIPOS>MOLECULE
*****
 38 40 0 0 0
SMALL
GASTEIGER

@<TRIPOS>ATOM
      1 N         140.1770  141.1658  160.3540 N.3     1  UNL1       -0.2664
      2 C         138.7890  141.7273  160.4434 C.3     1  UNL1        0.1058
      3 C         137.8063  141.1469  161.4169 C.3     1  UNL1        0.1700
      4 O         136.9532  139.9803  161.0157 O.3     1  UNL1       -0.3793
      5 H         137.1607  139.7267  160.1028 H       1  UNL1        0.2106
      6 C         137.6769  141.7333  162.7914 C.3     1  UNL1        0.2358
      7 O         137.6922  140.8366  163.9938 O.3     1  UNL1       -0.4728
      8 C         141.2855  140.7650  166.7018 C.ar    1  UNL1        0.0646
      9 C         141.2496  141.6980  165.5278 C.ar    1  UNL1        0.0190
     10 C         140.0518  141.7218  164.6251 C.ar    1  UNL1        0.0382
     11 C         138.8899  140.8128  164.8964 C.ar    1  UNL1        0.1388
     12 C         138.9259  139.8799  166.0704 C.ar    1  UNL1        0.0382
     13 C         140.1236  139.8560  166.9731 C.ar    1  UNL1        0.0190
     14 N         142.4832  140.7412  167.6044 N.pl3   1  UNL1       -0.2187
     15 H         143.2810  141.2718  167.3779 H       1  UNL1        0.1734
     16 C         142.4479  139.0766  170.1000 C.3     1  UNL1        0.1996
     17 S         142.4656  139.9089  168.8522 S.O2    1  UNL1        0.0558
     18 O         141.7725  141.0201  169.5835 O.2     1  UNL1       -0.1544
     19 O         143.1586  138.7977  168.1208 O.2     1  UNL1       -0.1544
     20 C         141.3506  142.0874  160.2015 C.3     1  UNL1        0.0772
     21 C         141.3850  143.3878  160.9483 C.3     1  UNL1        0.0437
     22 C         142.2858  143.5463  162.1373 C.ar    1  UNL1       -0.0199
     23 C         142.0752  144.6844  163.0914 C.ar    1  UNL1       -0.0033
     24 C         142.9761  144.8429  164.2802 C.ar    1  UNL1        0.0119
     25 C         144.0875  143.8633  164.5149 C.ar    1  UNL1        0.0682
     26 CL        144.9883  144.0218  165.7038 Cl      1  UNL1       -0.0814
     27 C         144.2981  142.7252  163.5608 C.ar    1  UNL1        0.0679
     28 CL        145.4095  141.7456  163.7955 Cl      1  UNL1       -0.0814
     29 C         143.3973  142.5667  162.3720 C.ar    1  UNL1        0.0080
     30 C         140.3915  139.6825  160.4172 C.3     1  UNL1        0.1022
     31 C         140.7416  139.0302  161.7219 C.ar    1  UNL1        0.0276
     32 C         142.0334  139.3672  162.4060 C.ar    1  UNL1        0.0001
     33 C         142.3835  138.7149  163.7106 C.ar    1  UNL1       -0.0001
     34 C         141.4419  137.7258  164.3311 C.ar    1  UNL1        0.0031
     35 C         140.1502  137.3889  163.6470 C.ar    1  UNL1        0.0363
     36 C         139.8001  138.0411  162.3424 C.ar    1  UNL1        0.1309
     37 O         138.5084  137.7042  161.6583 O.3     1  UNL1       -0.5058
     38 H         137.9203  137.0863  162.0459 H       1  UNL1        0.2922
@<TRIPOS>BOND
     1    16    17    1
     2    17    18    2
     3    17    19    2
     4    17    14    1
     5    14     8    1
     6     8     9   ar
     7     9    10   ar
     8    10    11   ar
     9    11     7    1
    10     7     6    1
    11     6     3    1
    12     3     4    1
    13     3     2    1
    14     2     1    1
    15     1    20    1
    16    20    21    1
    17    21    22    1
    18    22    23   ar
    19    23    24   ar
    20    24    25   ar
    21    25    26    1
    22    25    27   ar
    23    27    28    1
    24    27    29   ar
    25     1    30    1
    26    30    31    1
    27    31    32   ar
    28    32    33   ar
    29    33    34   ar
    30    34    35   ar
    31    35    36   ar
    32    36    37    1
    33    11    12   ar
    34    12    13   ar
    35    13     8   ar
    36    29    22   ar
    37    36    31   ar
    38    14    15    1
    39     4     5    1
    40    37    38    1
