@<TRIPOS>MOLECULE
*****
 42 45 0 0 0
SMALL
GASTEIGER

@<TRIPOS>ATOM
      1 C         140.3317  145.4433  160.4658 C.3     1  UNL1        0.0719
      2 C         139.7036  146.0493  161.6857 C.3     1  UNL1        0.0201
      3 C         139.5243  145.2243  162.9255 C.3     1  UNL1        0.0111
      4 C         139.9731  143.7932  162.9454 C.3     1  UNL1        0.0806
      5 C         140.6013  143.1871  161.7255 C.3     1  UNL1        0.0326
      6 C         140.7806  144.0122  160.4857 C.3     1  UNL1        0.0244
      7 C         141.0502  141.7560  161.7454 C.ar    1  UNL1       -0.0219
      8 C         140.0739  140.6594  161.4387 C.ar    1  UNL1       -0.0038
      9 C         140.5228  139.2282  161.4586 C.ar    1  UNL1        0.0064
     10 C         141.9480  138.8937  161.7852 C.ar    1  UNL1        0.0345
     11 BR        142.3970  137.4627  161.8051 Br      1  UNL1       -0.0490
     12 C         142.9244  139.9904  162.0920 C.ar    1  UNL1        0.0064
     13 C         142.4755  141.4215  162.0721 C.ar    1  UNL1       -0.0038
     14 C         140.1779  145.6875  157.8838 C.2     1  UNL1        0.2388
     15 O         139.6654  144.2814  157.7814 O.2     1  UNL1       -0.2736
     16 N         140.5111  146.2684  159.2260 N.am    1  UNL1       -0.3048
     17 H         140.8474  147.1912  159.2932 H       1  UNL1        0.1494
     18 C         140.3572  146.5126  156.6440 C.3     1  UNL1        0.1584
     19 N         139.1867  147.2396  156.0512 N.3     1  UNL1       -0.2651
     20 C         138.5322  149.7371  155.7611 C.3     1  UNL1        0.0188
     21 C         138.7339  148.5411  156.6437 C.3     1  UNL1        0.0726
     22 C         138.4690  146.6651  154.8659 C.3     1  UNL1        0.0726
     23 C         137.7353  145.3629  154.9922 C.3     1  UNL1        0.0188
     24 C         139.7938  142.9681  164.1852 C.2     1  UNL1        0.2227
     25 O         138.4145  142.6337  164.6706 O.2     1  UNL1       -0.2751
     26 N         140.9938  142.4773  164.9396 N.am    1  UNL1       -0.2986
     27 H         141.8991  142.6968  164.6210 H       1  UNL1        0.1500
     28 C         140.8145  141.6523  166.1794 C.3     1  UNL1        0.1169
     29 C         141.3908  142.1215  167.4824 C.ar    1  UNL1       -0.0002
     30 C         142.8043  141.7750  167.8455 C.ar    1  UNL1       -0.0001
     31 C         143.3805  142.2442  169.1484 C.ar    1  UNL1        0.0294
     32 C         142.5432  143.0600  170.0884 C.ar    1  UNL1        0.1401
     33 F         143.1195  143.5292  171.3913 F       1  UNL1       -0.2042
     34 C         141.1297  143.4065  169.7253 C.ar    1  UNL1        0.0294
     35 C         140.5535  142.9373  168.4223 C.ar    1  UNL1       -0.0001
     36 C         140.0590  140.3580  166.1162 C.ar    1  UNL1       -0.0002
     37 C         140.4204  139.3281  165.0873 C.ar    1  UNL1       -0.0001
     38 C         139.6649  138.0338  165.0240 C.ar    1  UNL1        0.0294
     39 C         138.5480  137.7694  165.9897 C.ar    1  UNL1        0.1401
     40 F         137.7925  136.4751  165.9266 F       1  UNL1       -0.2042
     41 C         138.1866  138.7993  167.0187 C.ar    1  UNL1        0.0294
     42 C         138.9421  140.0936  167.0819 C.ar    1  UNL1       -0.0001
@<TRIPOS>BOND
     1    20    21    1
     2    21    19    1
     3    19    22    1
     4    22    23    1
     5    19    18    1
     6    18    14    1
     7    14    15    2
     8    14    16   am
     9     1    16    1
    10     1     2    1
    11     2     3    1
    12     3     4    1
    13     4    24    1
    14    24    25    2
    15    24    26   am
    16    26    28    1
    17    28    29    1
    18    29    30   ar
    19    30    31   ar
    20    31    32   ar
    21    32    33    1
    22    32    34   ar
    23    34    35   ar
    24    28    36    1
    25    36    37   ar
    26    37    38   ar
    27    38    39   ar
    28    39    40    1
    29    39    41   ar
    30    41    42   ar
    31     4     5    1
    32     5     7    1
    33     7     8   ar
    34     8     9   ar
    35     9    10   ar
    36    10    11    1
    37    10    12   ar
    38    12    13   ar
    39     5     6    1
    40     6     1    1
    41    35    29   ar
    42    42    36   ar
    43    13     7   ar
    44    16    17    1
    45    26    27    1
@<TRIPOS>MOLECULE
*****
 42 45 0 0 0
SMALL
GASTEIGER

@<TRIPOS>ATOM
      1 C         140.6032  145.4265  160.4713 C.3     1  UNL1        0.0719
      2 C         139.9772  146.0572  161.6797 C.3     1  UNL1        0.0201
      3 C         139.7520  145.2429  162.9191 C.3     1  UNL1        0.0111
      4 C         140.1527  143.7978  162.9501 C.3     1  UNL1        0.0806
      5 C         140.7787  143.1670  161.7417 C.3     1  UNL1        0.0326
      6 C         141.0039  143.9814  160.5023 C.3     1  UNL1        0.0244
      7 C         141.1795  141.7218  161.7727 C.ar    1  UNL1       -0.0219
      8 C         140.1793  140.6586  161.4276 C.ar    1  UNL1       -0.0038
      9 C         140.5801  139.2134  161.4585 C.ar    1  UNL1        0.0064
     10 C         141.9811  138.8315  161.8346 C.ar    1  UNL1        0.0345
     11 BR        142.3819  137.3864  161.8656 Br      1  UNL1       -0.0490
     12 C         142.9813  139.8949  162.1797 C.ar    1  UNL1        0.0064
     13 C         142.5804  141.3400  162.1488 C.ar    1  UNL1       -0.0038
     14 C         140.3225  145.7481  157.9086 C.2     1  UNL1        0.2388
     15 O         139.5914  144.4410  157.8246 O.2     1  UNL1       -0.2736
     16 N         140.8284  146.2408  159.2319 N.am    1  UNL1       -0.3048
     17 H         141.3082  147.0987  159.2871 H       1  UNL1        0.1494
     18 C         140.5477  146.5625  156.6692 C.3     1  UNL1        0.1584
     19 N         139.3760  147.0657  155.8792 N.3     1  UNL1       -0.2651
     20 C         138.8894  149.5413  155.2592 C.3     1  UNL1        0.0188
     21 C         138.7597  148.3916  156.2138 C.3     1  UNL1        0.0726
     22 C         138.8207  146.2429  154.7547 C.3     1  UNL1        0.0726
     23 C         137.6516  145.3346  154.9962 C.3     1  UNL1        0.0188
     24 C         139.9275  142.9834  164.1895 C.2     1  UNL1        0.2227
     25 O         138.5307  142.6708  164.6380 O.2     1  UNL1       -0.2751
     26 N         141.0991  142.4817  164.9805 N.am    1  UNL1       -0.2986
     27 H         142.0159  142.6869  164.6861 H       1  UNL1        0.1500
     28 C         140.8739  141.6673  166.2199 C.3     1  UNL1        0.1169
     29 C         140.1004  140.3844  166.1440 C.ar    1  UNL1       -0.0002
     30 C         140.4486  139.3589  165.1062 C.ar    1  UNL1       -0.0001
     31 C         139.6751  138.0760  165.0303 C.ar    1  UNL1        0.0294
     32 C         138.5533  137.8185  165.9923 C.ar    1  UNL1        0.1401
     33 F         137.7798  136.5356  165.9164 F       1  UNL1       -0.2042
     34 C         138.2051  138.8440  167.0301 C.ar    1  UNL1        0.0294
     35 C         138.9786  140.1269  167.1060 C.ar    1  UNL1       -0.0001
     36 C         141.4222  142.1359  167.5350 C.ar    1  UNL1       -0.0002
     37 C         140.5664  142.9546  168.4555 C.ar    1  UNL1       -0.0001
     38 C         141.1147  143.4232  169.7707 C.ar    1  UNL1        0.0294
     39 C         142.5188  143.0731  170.1655 C.ar    1  UNL1        0.1401
     40 F         143.0671  143.5416  171.4807 F       1  UNL1       -0.2042
     41 C         143.3746  142.2543  169.2450 C.ar    1  UNL1        0.0294
     42 C         142.8263  141.7857  167.9298 C.ar    1  UNL1       -0.0001
@<TRIPOS>BOND
     1    20    21    1
     2    21    19    1
     3    19    22    1
     4    22    23    1
     5    19    18    1
     6    18    14    1
     7    14    15    2
     8    14    16   am
     9     1    16    1
    10     1     2    1
    11     2     3    1
    12     3     4    1
    13     4    24    1
    14    24    25    2
    15    24    26   am
    16    26    28    1
    17    28    29    1
    18    29    30   ar
    19    30    31   ar
    20    31    32   ar
    21    32    33    1
    22    32    34   ar
    23    34    35   ar
    24    28    36    1
    25    36    37   ar
    26    37    38   ar
    27    38    39   ar
    28    39    40    1
    29    39    41   ar
    30    41    42   ar
    31     4     5    1
    32     5     7    1
    33     7     8   ar
    34     8     9   ar
    35     9    10   ar
    36    10    11    1
    37    10    12   ar
    38    12    13   ar
    39     5     6    1
    40     6     1    1
    41    35    29   ar
    42    42    36   ar
    43    13     7   ar
    44    16    17    1
    45    26    27    1
@<TRIPOS>MOLECULE
*****
 42 45 0 0 0
SMALL
GASTEIGER

@<TRIPOS>ATOM
      1 C         140.3718  145.1952  160.3934 C.3     1  UNL1        0.0719
      2 C         140.6434  145.9054  161.6864 C.3     1  UNL1        0.0201
      3 C         140.4502  145.1895  162.9903 C.3     1  UNL1        0.0111
      4 C         139.9853  143.7634  163.0012 C.3     1  UNL1        0.0806
      5 C         139.7137  143.0532  161.7082 C.3     1  UNL1        0.0326
      6 C         139.9070  143.7691  160.4043 C.3     1  UNL1        0.0244
      7 C         139.2488  141.6270  161.7191 C.ar    1  UNL1       -0.0219
      8 C         137.7943  141.3138  161.9088 C.ar    1  UNL1       -0.0038
      9 C         137.3294  139.8876  161.9196 C.ar    1  UNL1        0.0064
     10 C         138.3192  138.7748  161.7409 C.ar    1  UNL1        0.0345
     11 BR        137.8544  137.3487  161.7517 Br      1  UNL1       -0.0490
     12 C         139.7738  139.0881  161.5512 C.ar    1  UNL1        0.0064
     13 C         140.2386  140.5142  161.5403 C.ar    1  UNL1       -0.0038
     14 C         141.7187  145.5521  158.2006 C.2     1  UNL1        0.2388
     15 O         142.6792  144.4772  158.6156 O.2     1  UNL1       -0.2736
     16 N         140.5651  145.9111  159.0895 N.am    1  UNL1       -0.3048
     17 H         139.9347  146.6166  158.8171 H       1  UNL1        0.1494
     18 C         141.9120  146.2680  156.8967 C.3     1  UNL1        0.1584
     19 N         141.1234  145.8539  155.6897 N.3     1  UNL1       -0.2651
     20 C         142.4354  144.5062  153.8974 C.3     1  UNL1        0.0188
     21 C         141.4261  144.5536  155.0060 C.3     1  UNL1        0.0726
     22 C         140.0322  146.7402  155.1665 C.3     1  UNL1        0.0726
     23 C         139.0940  147.4179  156.1208 C.3     1  UNL1        0.0188
     24 C         139.7921  143.0475  164.3051 C.2     1  UNL1        0.2227
     25 O         138.5137  143.2167  165.0714 O.2     1  UNL1       -0.2751
     26 N         140.8771  142.1624  164.8427 N.am    1  UNL1       -0.2986
     27 H         141.7162  142.0513  164.3398 H       1  UNL1        0.1500
     28 C         140.6839  141.4465  166.1466 C.3     1  UNL1        0.1169
     29 C         139.8649  140.1908  166.1986 C.ar    1  UNL1       -0.0002
     30 C         140.0629  139.1229  165.1641 C.ar    1  UNL1       -0.0001
     31 C         139.2440  137.8672  165.2160 C.ar    1  UNL1        0.0294
     32 C         138.2270  137.6795  166.3026 C.ar    1  UNL1        0.1401
     33 F         137.4081  136.4239  166.3545 F       1  UNL1       -0.2042
     34 C         138.0290  138.7474  167.3371 C.ar    1  UNL1        0.0294
     35 C         138.8480  140.0031  167.2851 C.ar    1  UNL1       -0.0001
     36 C         141.3096  141.9862  167.3985 C.ar    1  UNL1       -0.0002
     37 C         142.7425  141.6756  167.7148 C.ar    1  UNL1       -0.0001
     38 C         143.3683  142.2153  168.9667 C.ar    1  UNL1        0.0294
     39 C         142.5610  143.0656  169.9023 C.ar    1  UNL1        0.1401
     40 F         143.1867  143.6053  171.1541 F       1  UNL1       -0.2042
     41 C         141.1280  143.3762  169.5859 C.ar    1  UNL1        0.0294
     42 C         140.5023  142.8365  168.3340 C.ar    1  UNL1       -0.0001
@<TRIPOS>BOND
     1    20    21    1
     2    21    19    1
     3    19    22    1
     4    22    23    1
     5    19    18    1
     6    18    14    1
     7    14    15    2
     8    14    16   am
     9     1    16    1
    10     1     2    1
    11     2     3    1
    12     3     4    1
    13     4    24    1
    14    24    25    2
    15    24    26   am
    16    26    28    1
    17    28    29    1
    18    29    30   ar
    19    30    31   ar
    20    31    32   ar
    21    32    33    1
    22    32    34   ar
    23    34    35   ar
    24    28    36    1
    25    36    37   ar
    26    37    38   ar
    27    38    39   ar
    28    39    40    1
    29    39    41   ar
    30    41    42   ar
    31     4     5    1
    32     5     7    1
    33     7     8   ar
    34     8     9   ar
    35     9    10   ar
    36    10    11    1
    37    10    12   ar
    38    12    13   ar
    39     5     6    1
    40     6     1    1
    41    35    29   ar
    42    42    36   ar
    43    13     7   ar
    44    16    17    1
    45    26    27    1
@<TRIPOS>MOLECULE
*****
 42 45 0 0 0
SMALL
GASTEIGER

@<TRIPOS>ATOM
      1 C         140.4710  145.2344  160.4563 C.3     1  UNL1        0.0719
      2 C         140.7416  145.9330  161.7557 C.3     1  UNL1        0.0201
      3 C         140.5266  145.2125  163.0537 C.3     1  UNL1        0.0111
      4 C         140.0410  143.7933  163.0521 C.3     1  UNL1        0.0806
      5 C         139.7704  143.0947  161.7527 C.3     1  UNL1        0.0326
      6 C         139.9854  143.8152  160.4548 C.3     1  UNL1        0.0244
      7 C         139.2848  141.6754  161.7511 C.ar    1  UNL1       -0.0219
      8 C         140.2618  140.5486  161.5909 C.ar    1  UNL1       -0.0038
      9 C         139.7761  139.1293  161.5894 C.ar    1  UNL1        0.0064
     10 C         138.3135  138.8370  161.7480 C.ar    1  UNL1        0.0345
     11 BR        137.8278  137.4178  161.7464 Br      1  UNL1       -0.0490
     12 C         137.3365  139.9639  161.9081 C.ar    1  UNL1        0.0064
     13 C         137.8221  141.3831  161.9097 C.ar    1  UNL1       -0.0038
     14 C         141.7842  145.5216  158.2330 C.2     1  UNL1        0.2388
     15 O         142.6673  144.3677  158.6055 O.2     1  UNL1       -0.2736
     16 N         140.6861  145.9549  159.1584 N.am    1  UNL1       -0.3048
     17 H         140.1065  146.7122  158.9139 H       1  UNL1        0.1494
     18 C         141.9992  146.2421  156.9350 C.3     1  UNL1        0.1584
     19 N         141.1634  145.8970  155.7382 N.3     1  UNL1       -0.2651
     20 C         139.9301  147.8079  154.4823 C.3     1  UNL1        0.0188
     21 C         139.9069  146.6655  155.4540 C.3     1  UNL1        0.0726
     22 C         141.5840  144.7834  154.8256 C.3     1  UNL1        0.0726
     23 C         140.8639  143.4681  154.8659 C.3     1  UNL1        0.0188
     24 C         139.8260  143.0728  164.3501 C.2     1  UNL1        0.2227
     25 O         138.5064  143.1764  165.0557 O.2     1  UNL1       -0.2751
     26 N         140.9305  142.2487  164.9423 N.am    1  UNL1       -0.2986
     27 H         141.7966  142.1807  164.4792 H       1  UNL1        0.1500
     28 C         140.7154  141.5282  166.2402 C.3     1  UNL1        0.1169
     29 C         141.3339  142.0543  167.5015 C.ar    1  UNL1       -0.0002
     30 C         142.7572  141.7189  167.8355 C.ar    1  UNL1       -0.0001
     31 C         143.3757  142.2450  169.0967 C.ar    1  UNL1        0.0294
     32 C         142.5707  143.1065  170.0241 C.ar    1  UNL1        0.1401
     33 F         143.1891  143.6326  171.2853 F       1  UNL1       -0.2042
     34 C         141.1473  143.4419  169.6901 C.ar    1  UNL1        0.0294
     35 C         140.5289  142.9157  168.4288 C.ar    1  UNL1       -0.0001
     36 C         139.8821  140.2816  166.2769 C.ar    1  UNL1       -0.0002
     37 C         139.9993  139.2684  165.1770 C.ar    1  UNL1       -0.0001
     38 C         139.1659  138.0218  165.2136 C.ar    1  UNL1        0.0294
     39 C         138.2152  137.7883  166.3502 C.ar    1  UNL1        0.1401
     40 F         137.3819  136.5417  166.3868 F       1  UNL1       -0.2042
     41 C         138.0980  138.8015  167.4501 C.ar    1  UNL1        0.0294
     42 C         138.9314  140.0481  167.4134 C.ar    1  UNL1       -0.0001
@<TRIPOS>BOND
     1    20    21    1
     2    21    19    1
     3    19    22    1
     4    22    23    1
     5    19    18    1
     6    18    14    1
     7    14    15    2
     8    14    16   am
     9     1    16    1
    10     1     2    1
    11     2     3    1
    12     3     4    1
    13     4    24    1
    14    24    25    2
    15    24    26   am
    16    26    28    1
    17    28    29    1
    18    29    30   ar
    19    30    31   ar
    20    31    32   ar
    21    32    33    1
    22    32    34   ar
    23    34    35   ar
    24    28    36    1
    25    36    37   ar
    26    37    38   ar
    27    38    39   ar
    28    39    40    1
    29    39    41   ar
    30    41    42   ar
    31     4     5    1
    32     5     7    1
    33     7     8   ar
    34     8     9   ar
    35     9    10   ar
    36    10    11    1
    37    10    12   ar
    38    12    13   ar
    39     5     6    1
    40     6     1    1
    41    35    29   ar
    42    42    36   ar
    43    13     7   ar
    44    16    17    1
    45    26    27    1
@<TRIPOS>MOLECULE
*****
 42 45 0 0 0
SMALL
GASTEIGER

@<TRIPOS>ATOM
      1 C         140.4996  145.6189  157.3031 C.3     1  UNL1        0.0719
      2 C         141.3056  144.7400  156.3931 C.3     1  UNL1        0.0201
      3 C         141.6194  143.3298  156.7967 C.3     1  UNL1        0.0111
      4 C         141.1273  142.7985  158.1102 C.3     1  UNL1        0.0806
      5 C         140.3213  143.6773  159.0202 C.3     1  UNL1        0.0326
      6 C         140.0075  145.0875  158.6166 C.3     1  UNL1        0.0244
      7 C         139.8291  143.1460  160.3338 C.ar    1  UNL1       -0.0219
      8 C         138.4734  142.5108  160.4253 C.ar    1  UNL1       -0.0038
      9 C         137.9812  141.9794  161.7390 C.ar    1  UNL1        0.0064
     10 C         138.8449  142.0834  162.9610 C.ar    1  UNL1        0.0345
     11 BR        138.3528  141.5521  164.2746 Br      1  UNL1       -0.0490
     12 C         140.2006  142.7187  162.8694 C.ar    1  UNL1        0.0064
     13 C         140.6928  143.2500  161.5558 C.ar    1  UNL1       -0.0038
     14 C         139.0502  147.3050  155.9592 C.2     1  UNL1        0.2388
     15 O         138.2283  146.1708  155.4224 O.2     1  UNL1       -0.2736
     16 N         140.1858  147.0291  156.8995 N.am    1  UNL1       -0.3048
     17 H         140.7253  147.7735  157.2517 H       1  UNL1        0.1494
     18 C         138.7364  148.7152  155.5556 C.3     1  UNL1        0.1584
     19 N         139.6017  149.4183  154.5521 N.3     1  UNL1       -0.2651
     20 C         138.8228  151.7179  155.4769 C.3     1  UNL1        0.0188
     21 C         139.7079  150.9144  154.5708 C.3     1  UNL1        0.0726
     22 C         140.3607  148.6253  153.5299 C.3     1  UNL1        0.0726
     23 C         140.3199  149.0291  152.0857 C.3     1  UNL1        0.0188
     24 C         141.4411  141.3883  158.5138 C.2     1  UNL1        0.2227
     25 O         142.7720  141.0611  159.1232 O.2     1  UNL1       -0.2751
     26 N         140.4239  140.3053  158.3081 N.am    1  UNL1       -0.2986
     27 H         139.5503  140.5200  157.9081 H       1  UNL1        0.1500
     28 C         140.7377  138.8951  158.7116 C.3     1  UNL1        0.1169
     29 C         141.2269  137.9134  157.6884 C.ar    1  UNL1       -0.0002
     30 C         142.6700  137.5046  157.6711 C.ar    1  UNL1       -0.0001
     31 C         143.1593  136.5230  156.6480 C.ar    1  UNL1        0.0294
     32 C         142.2054  135.9500  155.6420 C.ar    1  UNL1        0.1401
     33 F         142.6947  134.9683  154.6189 F       1  UNL1       -0.2042
     34 C         140.7623  136.3587  155.6593 C.ar    1  UNL1        0.0294
     35 C         140.2730  137.3404  156.6825 C.ar    1  UNL1       -0.0001
     36 C         140.5623  138.4666  160.1384 C.ar    1  UNL1       -0.0002
     37 C         141.7616  138.1235  160.9712 C.ar    1  UNL1       -0.0001
     38 C         141.5863  137.6950  162.3980 C.ar    1  UNL1        0.0294
     39 C         140.2115  137.6096  162.9919 C.ar    1  UNL1        0.1401
     40 F         140.0360  137.1812  164.4186 F       1  UNL1       -0.2042
     41 C         139.0121  137.9528  162.1590 C.ar    1  UNL1        0.0294
     42 C         139.1875  138.3813  160.7322 C.ar    1  UNL1       -0.0001
@<TRIPOS>BOND
     1    20    21    1
     2    21    19    1
     3    19    22    1
     4    22    23    1
     5    19    18    1
     6    18    14    1
     7    14    15    2
     8    14    16   am
     9     1    16    1
    10     1     2    1
    11     2     3    1
    12     3     4    1
    13     4    24    1
    14    24    25    2
    15    24    26   am
    16    26    28    1
    17    28    29    1
    18    29    30   ar
    19    30    31   ar
    20    31    32   ar
    21    32    33    1
    22    32    34   ar
    23    34    35   ar
    24    28    36    1
    25    36    37   ar
    26    37    38   ar
    27    38    39   ar
    28    39    40    1
    29    39    41   ar
    30    41    42   ar
    31     4     5    1
    32     5     7    1
    33     7     8   ar
    34     8     9   ar
    35     9    10   ar
    36    10    11    1
    37    10    12   ar
    38    12    13   ar
    39     5     6    1
    40     6     1    1
    41    35    29   ar
    42    42    36   ar
    43    13     7   ar
    44    16    17    1
    45    26    27    1
@<TRIPOS>MOLECULE
*****
 42 45 0 0 0
SMALL
GASTEIGER

@<TRIPOS>ATOM
      1 C         139.0002  139.5260  163.7799 C.3     1  UNL1        0.0719
      2 C         138.9984  138.1665  163.1461 C.3     1  UNL1        0.0201
      3 C         139.4053  138.0075  161.7112 C.3     1  UNL1        0.0111
      4 C         139.8141  139.2079  160.9100 C.3     1  UNL1        0.0806
      5 C         139.8159  140.5674  161.5439 C.3     1  UNL1        0.0326
      6 C         139.4090  140.7264  162.9788 C.3     1  UNL1        0.0244
      7 C         140.2247  141.7679  160.7427 C.ar    1  UNL1       -0.0219
      8 C         141.6423  142.2557  160.7927 C.ar    1  UNL1       -0.0038
      9 C         142.0511  143.4562  159.9916 C.ar    1  UNL1        0.0064
     10 C         141.0422  144.1688  159.1405 C.ar    1  UNL1        0.0345
     11 BR        141.4510  145.3693  158.3394 Br      1  UNL1       -0.0490
     12 C         139.6246  143.6810  159.0905 C.ar    1  UNL1        0.0064
     13 C         139.2159  142.4805  159.8916 C.ar    1  UNL1       -0.0038
     14 C         139.6355  139.6926  166.2936 C.2     1  UNL1        0.2388
     15 O         141.0847  139.5411  165.9374 O.2     1  UNL1       -0.2736
     16 N         138.5933  139.6851  165.2149 N.am    1  UNL1       -0.3048
     17 H         137.6421  139.7845  165.4487 H       1  UNL1        0.1494
     18 C         139.2286  139.8517  167.7286 C.3     1  UNL1        0.1584
     19 N         140.0997  140.6248  168.6739 N.3     1  UNL1       -0.2651
     20 C         142.1442  139.4854  169.8016 C.3     1  UNL1        0.0188
     21 C         140.7155  139.9389  169.8573 C.3     1  UNL1        0.0726
     22 C         140.3549  142.0835  168.4359 C.3     1  UNL1        0.0726
     23 C         140.3501  143.0437  169.5884 C.3     1  UNL1        0.0188
     24 C         140.2210  139.0488  159.4751 C.2     1  UNL1        0.2227
     25 O         139.1799  139.0539  158.3953 O.2     1  UNL1       -0.2751
     26 N         141.6690  138.8847  159.1199 N.am    1  UNL1       -0.2986
     27 H         142.3524  138.8813  159.8286 H       1  UNL1        0.1500
     28 C         142.0760  138.7256  157.6850 C.3     1  UNL1        0.1169
     29 C         142.5581  139.9134  156.9060 C.ar    1  UNL1       -0.0002
     30 C         141.7455  141.1740  156.8811 C.ar    1  UNL1       -0.0001
     31 C         142.2276  142.3618  156.1022 C.ar    1  UNL1        0.0294
     32 C         143.5223  142.2891  155.3482 C.ar    1  UNL1        0.1401
     33 F         144.0044  143.4769  154.5693 F       1  UNL1       -0.2042
     34 C         144.3349  141.0285  155.3732 C.ar    1  UNL1        0.0294
     35 C         143.8528  139.8407  156.1521 C.ar    1  UNL1       -0.0001
     36 C         142.0008  137.3788  157.0289 C.ar    1  UNL1       -0.0002
     37 C         142.9748  136.3036  157.4099 C.ar    1  UNL1       -0.0001
     38 C         142.8996  134.9567  156.7539 C.ar    1  UNL1        0.0294
     39 C         141.8504  134.6851  155.7169 C.ar    1  UNL1        0.1401
     40 F         141.7752  133.3383  155.0608 F       1  UNL1       -0.2042
     41 C         140.8764  135.7604  155.3358 C.ar    1  UNL1        0.0294
     42 C         140.9516  137.1072  155.9919 C.ar    1  UNL1       -0.0001
@<TRIPOS>BOND
     1    20    21    1
     2    21    19    1
     3    19    22    1
     4    22    23    1
     5    19    18    1
     6    18    14    1
     7    14    15    2
     8    14    16   am
     9     1    16    1
    10     1     2    1
    11     2     3    1
    12     3     4    1
    13     4    24    1
    14    24    25    2
    15    24    26   am
    16    26    28    1
    17    28    29    1
    18    29    30   ar
    19    30    31   ar
    20    31    32   ar
    21    32    33    1
    22    32    34   ar
    23    34    35   ar
    24    28    36    1
    25    36    37   ar
    26    37    38   ar
    27    38    39   ar
    28    39    40    1
    29    39    41   ar
    30    41    42   ar
    31     4     5    1
    32     5     7    1
    33     7     8   ar
    34     8     9   ar
    35     9    10   ar
    36    10    11    1
    37    10    12   ar
    38    12    13   ar
    39     5     6    1
    40     6     1    1
    41    35    29   ar
    42    42    36   ar
    43    13     7   ar
    44    16    17    1
    45    26    27    1
@<TRIPOS>MOLECULE
*****
 42 45 0 0 0
SMALL
GASTEIGER

@<TRIPOS>ATOM
      1 C         139.1005  139.4612  163.6849 C.3     1  UNL1        0.0719
      2 C         139.1120  138.1074  163.0391 C.3     1  UNL1        0.0201
      3 C         139.5242  137.9646  161.6039 C.3     1  UNL1        0.0111
      4 C         139.9248  139.1755  160.8145 C.3     1  UNL1        0.0806
      5 C         139.9132  140.5293  161.4603 C.3     1  UNL1        0.0326
      6 C         139.5010  140.6721  162.8955 C.3     1  UNL1        0.0244
      7 C         140.3138  141.7403  160.6709 C.ar    1  UNL1       -0.0219
      8 C         139.3050  142.4427  159.8114 C.ar    1  UNL1       -0.0038
      9 C         139.7056  143.6537  159.0220 C.ar    1  UNL1        0.0064
     10 C         141.1150  144.1622  159.0922 C.ar    1  UNL1        0.0345
     11 BR        141.5157  145.3732  158.3029 Br      1  UNL1       -0.0490
     12 C         142.1239  143.4597  159.9518 C.ar    1  UNL1        0.0064
     13 C         141.7232  142.2488  160.7411 C.ar    1  UNL1       -0.0038
     14 C         139.7301  139.6548  166.1980 C.2     1  UNL1        0.2388
     15 O         141.1841  139.5626  165.8409 O.2     1  UNL1       -0.2736
     16 N         138.6883  139.6041  165.1200 N.am    1  UNL1       -0.3048
     17 H         137.7340  139.6646  165.3544 H       1  UNL1        0.1494
     18 C         139.3179  139.7976  167.6332 C.3     1  UNL1        0.1584
     19 N         140.1757  140.5765  168.5859 N.3     1  UNL1       -0.2651
     20 C         140.4504  142.9931  169.4996 C.3     1  UNL1        0.0188
     21 C         140.4297  142.0352  168.3455 C.3     1  UNL1        0.0726
     22 C         140.7795  139.8968  169.7789 C.3     1  UNL1        0.0726
     23 C         142.1871  139.3821  169.7163 C.3     1  UNL1        0.0188
     24 C         140.3369  139.0326  159.3793 C.2     1  UNL1        0.2227
     25 O         139.3188  139.1831  158.2881 O.2     1  UNL1       -0.2751
     26 N         141.7672  138.7393  159.0354 N.am    1  UNL1       -0.2986
     27 H         142.4354  138.6405  159.7516 H       1  UNL1        0.1500
     28 C         142.1793  138.5964  157.6002 C.3     1  UNL1        0.1169
     29 C         141.9869  137.2885  156.8913 C.ar    1  UNL1       -0.0002
     30 C         140.8903  137.1384  155.8789 C.ar    1  UNL1       -0.0001
     31 C         140.6979  135.8306  155.1700 C.ar    1  UNL1        0.0294
     32 C         141.6021  134.6728  155.4734 C.ar    1  UNL1        0.1401
     33 F         141.4097  133.3650  154.7645 F       1  UNL1       -0.2042
     34 C         142.6987  134.8229  156.4858 C.ar    1  UNL1        0.0294
     35 C         142.8911  136.1308  157.1948 C.ar    1  UNL1       -0.0001
     36 C         142.7838  139.7613  156.8740 C.ar    1  UNL1       -0.0002
     37 C         143.9394  139.5464  155.9421 C.ar    1  UNL1       -0.0001
     38 C         144.5439  140.7113  155.2158 C.ar    1  UNL1        0.0294
     39 C         143.9929  142.0912  155.4214 C.ar    1  UNL1        0.1401
     40 F         144.5974  143.2561  154.6952 F       1  UNL1       -0.2042
     41 C         142.8373  142.3061  156.3534 C.ar    1  UNL1        0.0294
     42 C         142.2328  141.1412  157.0796 C.ar    1  UNL1       -0.0001
@<TRIPOS>BOND
     1    20    21    1
     2    21    19    1
     3    19    22    1
     4    22    23    1
     5    19    18    1
     6    18    14    1
     7    14    15    2
     8    14    16   am
     9     1    16    1
    10     1     2    1
    11     2     3    1
    12     3     4    1
    13     4    24    1
    14    24    25    2
    15    24    26   am
    16    26    28    1
    17    28    29    1
    18    29    30   ar
    19    30    31   ar
    20    31    32   ar
    21    32    33    1
    22    32    34   ar
    23    34    35   ar
    24    28    36    1
    25    36    37   ar
    26    37    38   ar
    27    38    39   ar
    28    39    40    1
    29    39    41   ar
    30    41    42   ar
    31     4     5    1
    32     5     7    1
    33     7     8   ar
    34     8     9   ar
    35     9    10   ar
    36    10    11    1
    37    10    12   ar
    38    12    13   ar
    39     5     6    1
    40     6     1    1
    41    35    29   ar
    42    42    36   ar
    43    13     7   ar
    44    16    17    1
    45    26    27    1
@<TRIPOS>MOLECULE
*****
 42 45 0 0 0
SMALL
GASTEIGER

@<TRIPOS>ATOM
      1 C         140.8475  139.1535  164.2178 C.3     1  UNL1        0.0719
      2 C         140.8317  137.7901  163.5927 C.3     1  UNL1        0.0201
      3 C         140.9565  137.6456  162.1049 C.3     1  UNL1        0.0111
      4 C         141.0972  138.8645  161.2422 C.3     1  UNL1        0.0806
      5 C         141.1130  140.2280  161.8673 C.3     1  UNL1        0.0326
      6 C         140.9882  140.3724  163.3551 C.3     1  UNL1        0.0244
      7 C         141.2537  141.4470  161.0046 C.ar    1  UNL1       -0.0219
      8 C         140.0419  142.0567  160.3644 C.ar    1  UNL1       -0.0038
      9 C         140.1826  143.2758  159.5017 C.ar    1  UNL1        0.0064
     10 C         141.5351  143.8850  159.2792 C.ar    1  UNL1        0.0345
     11 BR        141.6758  145.1040  158.4165 Br      1  UNL1       -0.0490
     12 C         142.7469  143.2753  159.9193 C.ar    1  UNL1        0.0064
     13 C         142.6062  142.0563  160.7820 C.ar    1  UNL1       -0.0038
     14 C         139.4129  139.7059  166.3122 C.2     1  UNL1        0.2388
     15 O         138.2279  139.9694  165.4310 O.2     1  UNL1       -0.2736
     16 N         140.7227  139.2980  165.7056 N.am    1  UNL1       -0.3048
     17 H         141.5004  139.1250  166.2839 H       1  UNL1        0.1494
     18 C         139.2880  139.8504  167.8000 C.3     1  UNL1        0.1584
     19 N         140.3681  140.5400  168.5798 N.3     1  UNL1       -0.2651
     20 C         142.4529  139.3333  169.5532 C.3     1  UNL1        0.0188
     21 C         141.0460  139.8283  169.7129 C.3     1  UNL1        0.0726
     22 C         140.7702  141.9412  168.2265 C.3     1  UNL1        0.0726
     23 C         140.4573  143.0701  169.1635 C.3     1  UNL1        0.0188
     24 C         141.2221  138.7201  159.7544 C.2     1  UNL1        0.2227
     25 O         140.0021  138.8137  158.8868 O.2     1  UNL1       -0.2751
     26 N         142.5669  138.4819  159.1342 N.am    1  UNL1       -0.2986
     27 H         143.3676  138.4204  159.7037 H       1  UNL1        0.1500
     28 C         142.6917  138.3374  157.6464 C.3     1  UNL1        0.1169
     29 C         143.1232  139.5076  156.8129 C.ar    1  UNL1       -0.0002
     30 C         142.5885  140.8773  157.1093 C.ar    1  UNL1       -0.0001
     31 C         143.0199  142.0474  156.2758 C.ar    1  UNL1        0.0294
     32 C         143.9860  141.8478  155.1458 C.ar    1  UNL1        0.1401
     33 F         144.4174  143.0178  154.3123 F       1  UNL1       -0.2042
     34 C         144.5207  140.4780  154.8494 C.ar    1  UNL1        0.0294
     35 C         144.0892  139.3079  155.6829 C.ar    1  UNL1       -0.0001
     36 C         142.3852  137.0229  156.9922 C.ar    1  UNL1       -0.0002
     37 C         143.1989  135.8091  157.3304 C.ar    1  UNL1       -0.0001
     38 C         142.8923  134.4945  156.6761 C.ar    1  UNL1        0.0294
     39 C         141.7721  134.3939  155.6837 C.ar    1  UNL1        0.1401
     40 F         141.4655  133.0794  155.0295 F       1  UNL1       -0.2042
     41 C         140.9584  135.6078  155.3456 C.ar    1  UNL1        0.0294
     42 C         141.2649  136.9223  155.9998 C.ar    1  UNL1       -0.0001
@<TRIPOS>BOND
     1    20    21    1
     2    21    19    1
     3    19    22    1
     4    22    23    1
     5    19    18    1
     6    18    14    1
     7    14    15    2
     8    14    16   am
     9     1    16    1
    10     1     2    1
    11     2     3    1
    12     3     4    1
    13     4    24    1
    14    24    25    2
    15    24    26   am
    16    26    28    1
    17    28    29    1
    18    29    30   ar
    19    30    31   ar
    20    31    32   ar
    21    32    33    1
    22    32    34   ar
    23    34    35   ar
    24    28    36    1
    25    36    37   ar
    26    37    38   ar
    27    38    39   ar
    28    39    40    1
    29    39    41   ar
    30    41    42   ar
    31     4     5    1
    32     5     7    1
    33     7     8   ar
    34     8     9   ar
    35     9    10   ar
    36    10    11    1
    37    10    12   ar
    38    12    13   ar
    39     5     6    1
    40     6     1    1
    41    35    29   ar
    42    42    36   ar
    43    13     7   ar
    44    16    17    1
    45    26    27    1
@<TRIPOS>MOLECULE
*****
 42 45 0 0 0
SMALL
GASTEIGER

@<TRIPOS>ATOM
      1 C         141.3556  139.2607  163.8678 C.3     1  UNL1        0.0719
      2 C         141.2662  137.8571  163.3464 C.3     1  UNL1        0.0201
      3 C         141.3441  137.5988  161.8709 C.3     1  UNL1        0.0111
      4 C         141.5115  138.7440  160.9168 C.3     1  UNL1        0.0806
      5 C         141.6009  140.1476  161.4382 C.3     1  UNL1        0.0326
      6 C         141.5230  140.4059  162.9137 C.3     1  UNL1        0.0244
      7 C         141.7683  141.2929  160.4841 C.ar    1  UNL1       -0.0219
      8 C         140.5633  141.9283  159.8563 C.ar    1  UNL1       -0.0038
      9 C         140.7307  143.0737  158.9022 C.ar    1  UNL1        0.0064
     10 C         142.1031  143.5835  158.5759 C.ar    1  UNL1        0.0345
     11 BR        142.2706  144.7288  157.6218 Br      1  UNL1       -0.0490
     12 C         143.3082  142.9480  159.2037 C.ar    1  UNL1        0.0064
     13 C         143.1408  141.8028  160.1578 C.ar    1  UNL1       -0.0038
     14 C         142.4800  139.2874  166.2098 C.2     1  UNL1        0.2388
     15 O         143.7603  138.7974  165.6008 O.2     1  UNL1       -0.2736
     16 N         141.2777  139.5191  165.3434 N.am    1  UNL1       -0.3048
     17 H         140.4374  139.8406  165.7431 H       1  UNL1        0.1494
     18 C         142.4020  139.5458  167.6854 C.3     1  UNL1        0.1584
     19 N         141.4415  140.5673  168.2182 N.3     1  UNL1       -0.2651
     20 C         143.2386  142.2683  169.0101 C.3     1  UNL1        0.0188
     21 C         141.8893  141.9847  168.4194 C.3     1  UNL1        0.0726
     22 C         140.0332  140.1715  168.5499 C.3     1  UNL1        0.0726
     23 C         139.4591  140.5001  169.8962 C.3     1  UNL1        0.0188
     24 C         141.5894  138.4857  159.4412 C.2     1  UNL1        0.2227
     25 O         140.3550  138.5893  158.5955 O.2     1  UNL1       -0.2751
     26 N         142.9018  138.1237  158.8115 N.am    1  UNL1       -0.2986
     27 H         143.7120  138.0556  159.3666 H       1  UNL1        0.1500
     28 C         142.9797  137.8653  157.3360 C.3     1  UNL1        0.1169
     29 C         143.4499  138.9469  156.4090 C.ar    1  UNL1       -0.0002
     30 C         142.9309  140.3457  156.5642 C.ar    1  UNL1       -0.0001
     31 C         143.4010  141.4273  155.6373 C.ar    1  UNL1        0.0294
     32 C         144.3901  141.1101  154.5551 C.ar    1  UNL1        0.1401
     33 F         144.8601  142.1916  153.6282 F       1  UNL1       -0.2042
     34 C         144.9090  139.7113  154.3998 C.ar    1  UNL1        0.0294
     35 C         144.4389  138.6297  155.3268 C.ar    1  UNL1       -0.0001
     36 C         142.5876  136.5255  156.7874 C.ar    1  UNL1       -0.0002
     37 C         141.4730  136.4209  155.7891 C.ar    1  UNL1       -0.0001
     38 C         141.0808  135.0810  155.2405 C.ar    1  UNL1        0.0294
     39 C         141.8032  133.8457  155.6902 C.ar    1  UNL1        0.1401
     40 F         141.4110  132.5059  155.1417 F       1  UNL1       -0.2042
     41 C         142.9178  133.9504  156.6886 C.ar    1  UNL1        0.0294
     42 C         143.3100  135.2902  157.2372 C.ar    1  UNL1       -0.0001
@<TRIPOS>BOND
     1    20    21    1
     2    21    19    1
     3    19    22    1
     4    22    23    1
     5    19    18    1
     6    18    14    1
     7    14    15    2
     8    14    16   am
     9     1    16    1
    10     1     2    1
    11     2     3    1
    12     3     4    1
    13     4    24    1
    14    24    25    2
    15    24    26   am
    16    26    28    1
    17    28    29    1
    18    29    30   ar
    19    30    31   ar
    20    31    32   ar
    21    32    33    1
    22    32    34   ar
    23    34    35   ar
    24    28    36    1
    25    36    37   ar
    26    37    38   ar
    27    38    39   ar
    28    39    40    1
    29    39    41   ar
    30    41    42   ar
    31     4     5    1
    32     5     7    1
    33     7     8   ar
    34     8     9   ar
    35     9    10   ar
    36    10    11    1
    37    10    12   ar
    38    12    13   ar
    39     5     6    1
    40     6     1    1
    41    35    29   ar
    42    42    36   ar
    43    13     7   ar
    44    16    17    1
    45    26    27    1
