@<TRIPOS>MOLECULE
*****
 20 22 0 0 0
SMALL
GASTEIGER

@<TRIPOS>ATOM
      1 C         139.7402  140.5912  170.6174 C.3     1  UNL1        0.0338
      2 C         140.8689  141.1900  169.8317 C.2     1  UNL1        0.0128
      3 C         140.9757  140.9333  168.3577 C.2     1  UNL1       -0.0025
      4 C         139.9538  140.0777  167.6694 C.3     1  UNL1        0.1900
      5 O         138.7399  139.3585  168.1784 O.3     1  UNL1       -0.4479
      6 C         138.0965  138.6572  167.0190 C.2     1  UNL1        0.3168
      7 O         136.8548  137.8175  167.0753 O.2     1  UNL1       -0.2501
      8 C         138.9128  138.9431  165.7934 C.3     1  UNL1        0.1052
      9 C         138.6307  138.4394  164.4089 C.3     1  UNL1        0.0119
     10 C         140.0606  139.8210  166.1954 C.3     1  UNL1        0.0816
     11 C         141.1894  140.4198  165.4097 C.3     1  UNL1        0.1154
     12 O         141.2962  140.1631  163.9356 O.3     1  UNL1       -0.3843
     13 C         142.2113  141.2754  166.0979 C.3     1  UNL1        0.0373
     14 C         142.1045  141.5321  167.5720 C.3     1  UNL1        0.0392
     15 C         143.2332  142.1310  166.7863 C.3     1  UNL1        0.0086
     16 C         143.1264  142.3877  168.2602 C.2     1  UNL1       -0.0196
     17 C         143.0195  142.6444  169.7342 C.2     1  UNL1        0.0374
     18 C         141.8908  142.0455  170.5199 C.2     1  UNL1        0.1909
     19 O         141.7840  142.3023  171.9940 O.2     1  UNL1       -0.2869
     20 H         140.5622  139.5958  163.6522 H       1  UNL1        0.2103
@<TRIPOS>BOND
     1     1     2    1
     2     2     3    2
     3     3     4    1
     4     4     5    1
     5     5     6    1
     6     6     7    2
     7     6     8    1
     8     8     9    1
     9     8    10    1
    10    10    11    1
    11    11    12    1
    12    11    13    1
    13    13    14    1
    14    14    15    1
    15    14    16    1
    16    16    17    2
    17    17    18    1
    18    18    19    2
    19    18     2    1
    20    14     3    1
    21    10     4    1
    22    12    20    1
@<TRIPOS>MOLECULE
*****
 20 22 0 0 0
SMALL
GASTEIGER

@<TRIPOS>ATOM
      1 C         139.9122  140.9276  167.0609 C.3     1  UNL1        0.0338
      2 C         139.9472  139.7496  166.1330 C.2     1  UNL1        0.0128
      3 C         141.1184  139.5508  165.2172 C.2     1  UNL1       -0.0025
      4 C         142.2547  140.5300  165.2293 C.3     1  UNL1        0.1900
      5 O         142.4974  141.7759  166.0286 O.3     1  UNL1       -0.4479
      6 C         143.8187  142.3471  165.6067 C.2     1  UNL1        0.3168
      7 O         144.4545  143.5925  166.1496 O.2     1  UNL1       -0.2501
      8 C         144.3925  141.4542  164.5468 C.3     1  UNL1        0.1052
      9 C         145.7030  141.6500  163.8435 C.3     1  UNL1        0.0119
     10 C         143.4259  140.3312  164.3136 C.3     1  UNL1        0.0816
     11 C         143.4609  139.1532  163.3856 C.3     1  UNL1        0.1154
     12 O         144.6322  138.9544  162.4698 O.3     1  UNL1       -0.3843
     13 C         142.3247  138.1740  163.3734 C.3     1  UNL1        0.0373
     14 C         141.1534  138.3728  164.2892 C.3     1  UNL1        0.0392
     15 C         141.1883  137.1948  163.3612 C.3     1  UNL1        0.0086
     16 C         140.0171  137.3937  164.2770 C.2     1  UNL1       -0.0196
     17 C         138.8459  137.5925  165.1928 C.2     1  UNL1        0.0374
     18 C         138.8110  138.7705  166.1208 C.2     1  UNL1        0.1909
     19 O         137.6397  138.9693  167.0366 O.2     1  UNL1       -0.2869
     20 H         145.2723  139.6708  162.6033 H       1  UNL1        0.2103
@<TRIPOS>BOND
     1     1     2    1
     2     2     3    2
     3     3     4    1
     4     4     5    1
     5     5     6    1
     6     6     7    2
     7     6     8    1
     8     8     9    1
     9     8    10    1
    10    10    11    1
    11    11    12    1
    12    11    13    1
    13    13    14    1
    14    14    15    1
    15    14    16    1
    16    16    17    2
    17    17    18    1
    18    18    19    2
    19    18     2    1
    20    14     3    1
    21    10     4    1
    22    12    20    1
@<TRIPOS>MOLECULE
*****
 20 22 0 0 0
SMALL
GASTEIGER

@<TRIPOS>ATOM
      1 C         142.7133  139.8121  164.8807 C.3     1  UNL1        0.0338
      2 C         141.3256  139.3017  165.1333 C.2     1  UNL1        0.0128
      3 C         140.6252  139.6370  166.4167 C.2     1  UNL1       -0.0025
      4 C         141.3125  140.4826  167.4475 C.3     1  UNL1        0.1900
      5 O         142.6683  141.1236  167.4782 O.3     1  UNL1       -0.4479
      6 C         142.8058  141.8549  168.7806 C.2     1  UNL1        0.3168
      7 O         144.0039  142.6379  169.2299 O.2     1  UNL1       -0.2501
      8 C         141.5350  141.6660  169.5547 C.3     1  UNL1        0.1052
      9 C         141.2391  142.2268  170.9142 C.3     1  UNL1        0.0119
     10 C         140.6121  140.8178  168.7308 C.3     1  UNL1        0.0816
     11 C         139.2244  140.3074  168.9834 C.3     1  UNL1        0.1154
     12 O         138.5240  140.6427  170.2668 O.3     1  UNL1       -0.3843
     13 C         138.5371  139.4618  167.9527 C.3     1  UNL1        0.0373
     14 C         139.2375  139.1266  166.6692 C.3     1  UNL1        0.0392
     15 C         137.8498  138.6162  166.9218 C.3     1  UNL1        0.0086
     16 C         138.5502  138.2809  165.6385 C.2     1  UNL1       -0.0196
     17 C         139.2506  137.9457  164.3551 C.2     1  UNL1        0.0374
     18 C         140.6383  138.4561  164.1025 C.2     1  UNL1        0.1909
     19 O         141.3387  138.1209  162.8191 O.2     1  UNL1       -0.2869
     20 H         139.1034  141.1923  170.8174 H       1  UNL1        0.2103
@<TRIPOS>BOND
     1     1     2    1
     2     2     3    2
     3     3     4    1
     4     4     5    1
     5     5     6    1
     6     6     7    2
     7     6     8    1
     8     8     9    1
     9     8    10    1
    10    10    11    1
    11    11    12    1
    12    11    13    1
    13    13    14    1
    14    14    15    1
    15    14    16    1
    16    16    17    2
    17    17    18    1
    18    18    19    2
    19    18     2    1
    20    14     3    1
    21    10     4    1
    22    12    20    1
@<TRIPOS>MOLECULE
*****
 20 22 0 0 0
SMALL
GASTEIGER

@<TRIPOS>ATOM
      1 C         143.8549  139.4440  164.7858 C.3     1  UNL1        0.0338
      2 C         142.6494  138.8476  164.1217 C.2     1  UNL1        0.0128
      3 C         141.3293  138.8366  164.8337 C.2     1  UNL1       -0.0025
      4 C         141.2146  139.4220  166.2101 C.3     1  UNL1        0.1900
      5 O         142.2215  140.0743  167.1104 O.3     1  UNL1       -0.4479
      6 C         141.5237  140.4665  168.3789 C.2     1  UNL1        0.3168
      7 O         142.1535  141.1488  169.5570 O.2     1  UNL1       -0.2501
      8 C         140.0855  140.0565  168.2626 C.3     1  UNL1        0.1052
      9 C         139.0245  140.2569  169.3040 C.3     1  UNL1        0.0119
     10 C         139.8945  139.4110  166.9222 C.3     1  UNL1        0.0816
     11 C         138.6890  138.8146  166.2580 C.3     1  UNL1        0.1154
     12 O         137.3688  138.8036  166.9701 O.3     1  UNL1       -0.3843
     13 C         138.8036  138.2292  164.8817 C.3     1  UNL1        0.0373
     14 C         140.1238  138.2402  164.1696 C.3     1  UNL1        0.0392
     15 C         138.9183  137.6438  163.5054 C.3     1  UNL1        0.0086
     16 C         140.2385  137.6548  162.7933 C.2     1  UNL1       -0.0196
     17 C         141.5586  137.6659  162.0812 C.2     1  UNL1        0.0374
     18 C         142.7640  138.2623  162.7454 C.2     1  UNL1        0.1909
     19 O         144.0842  138.2733  162.0332 O.2     1  UNL1       -0.2869
     20 H         137.4682  139.2172  167.8419 H       1  UNL1        0.2103
@<TRIPOS>BOND
     1     1     2    1
     2     2     3    2
     3     3     4    1
     4     4     5    1
     5     5     6    1
     6     6     7    2
     7     6     8    1
     8     8     9    1
     9     8    10    1
    10    10    11    1
    11    11    12    1
    12    11    13    1
    13    13    14    1
    14    14    15    1
    15    14    16    1
    16    16    17    2
    17    17    18    1
    18    18    19    2
    19    18     2    1
    20    14     3    1
    21    10     4    1
    22    12    20    1
@<TRIPOS>MOLECULE
*****
 20 22 0 0 0
SMALL
GASTEIGER

@<TRIPOS>ATOM
      1 C         141.7773  141.0572  167.7083 C.3     1  UNL1        0.0338
      2 C         140.6721  140.1615  167.2324 C.2     1  UNL1        0.0128
      3 C         140.8262  139.3956  165.9520 C.2     1  UNL1       -0.0025
      4 C         142.0856  139.5253  165.1474 C.3     1  UNL1        0.1900
      5 O         143.3362  140.3250  165.3626 O.3     1  UNL1       -0.4479
      6 C         144.2633  140.0532  164.2152 C.2     1  UNL1        0.3168
      7 O         145.6285  140.6452  164.0255 O.2     1  UNL1       -0.2501
      8 C         143.5857  139.0857  163.2908 C.3     1  UNL1        0.1052
      9 C         144.1541  138.5401  162.0143 C.3     1  UNL1        0.0119
     10 C         142.2397  138.7594  163.8669 C.3     1  UNL1        0.0816
     11 C         141.1345  137.8637  163.3910 C.3     1  UNL1        0.1154
     12 O         141.2887  137.0978  162.1105 O.3     1  UNL1       -0.3843
     13 C         139.8753  137.7341  164.1956 C.3     1  UNL1        0.0373
     14 C         139.7211  138.5000  165.4761 C.3     1  UNL1        0.0392
     15 C         138.6159  137.6044  165.0002 C.3     1  UNL1        0.0086
     16 C         138.4618  138.3703  166.2806 C.2     1  UNL1       -0.0196
     17 C         138.3077  139.1362  167.5611 C.2     1  UNL1        0.0374
     18 C         139.4128  140.0319  168.0370 C.2     1  UNL1        0.1909
     19 O         139.2587  140.7978  169.3175 O.2     1  UNL1       -0.2869
     20 H         142.1542  137.2936  161.7189 H       1  UNL1        0.2103
@<TRIPOS>BOND
     1     1     2    1
     2     2     3    2
     3     3     4    1
     4     4     5    1
     5     5     6    1
     6     6     7    2
     7     6     8    1
     8     8     9    1
     9     8    10    1
    10    10    11    1
    11    11    12    1
    12    11    13    1
    13    13    14    1
    14    14    15    1
    15    14    16    1
    16    16    17    2
    17    17    18    1
    18    18    19    2
    19    18     2    1
    20    14     3    1
    21    10     4    1
    22    12    20    1
@<TRIPOS>MOLECULE
*****
 20 22 0 0 0
SMALL
GASTEIGER

@<TRIPOS>ATOM
      1 C         142.4585  142.9716  169.9800 C.3     1  UNL1        0.0338
      2 C         141.3747  142.0131  169.5840 C.2     1  UNL1        0.0128
      3 C         141.2921  141.5167  168.1709 C.2     1  UNL1       -0.0025
      4 C         142.2932  141.9789  167.1538 C.3     1  UNL1        0.1900
      5 O         143.4634  142.9123  167.2496 O.3     1  UNL1       -0.4479
      6 C         144.1040  142.9928  165.8957 C.2     1  UNL1        0.3168
      7 O         145.3077  143.8130  165.5372 O.2     1  UNL1       -0.2501
      8 C         143.3297  142.1092  164.9632 C.3     1  UNL1        0.1052
      9 C         143.6230  141.8905  163.5084 C.3     1  UNL1        0.0119
     10 C         142.2105  141.4825  165.7408 C.3     1  UNL1        0.0816
     11 C         141.1268  140.5240  165.3447 C.3     1  UNL1        0.1154
     12 O         141.0441  140.0277  163.9316 O.3     1  UNL1       -0.3843
     13 C         140.1257  140.0619  166.3617 C.3     1  UNL1        0.0373
     14 C         140.2083  140.5583  167.7748 C.3     1  UNL1        0.0392
     15 C         139.1246  139.5998  167.3788 C.3     1  UNL1        0.0086
     16 C         139.2073  140.0961  168.7918 C.2     1  UNL1       -0.0196
     17 C         139.2900  140.5925  170.2049 C.2     1  UNL1        0.0374
     18 C         140.3737  141.5510  170.6009 C.2     1  UNL1        0.1909
     19 O         140.4563  142.0473  172.0141 O.2     1  UNL1       -0.2869
     20 H         141.7602  140.4207  163.4084 H       1  UNL1        0.2103
@<TRIPOS>BOND
     1     1     2    1
     2     2     3    2
     3     3     4    1
     4     4     5    1
     5     5     6    1
     6     6     7    2
     7     6     8    1
     8     8     9    1
     9     8    10    1
    10    10    11    1
    11    11    12    1
    12    11    13    1
    13    13    14    1
    14    14    15    1
    15    14    16    1
    16    16    17    2
    17    17    18    1
    18    18    19    2
    19    18     2    1
    20    14     3    1
    21    10     4    1
    22    12    20    1
@<TRIPOS>MOLECULE
*****
 20 22 0 0 0
SMALL
GASTEIGER

@<TRIPOS>ATOM
      1 C         143.1726  142.1896  167.2586 C.3     1  UNL1        0.0338
      2 C         142.1314  141.8507  168.2839 C.2     1  UNL1        0.0128
      3 C         140.9582  140.9955  167.9070 C.2     1  UNL1       -0.0025
      4 C         140.8260  140.4792  166.5048 C.3     1  UNL1        0.1900
      5 O         141.6877  140.6460  165.2885 O.3     1  UNL1       -0.4479
      6 C         141.0470  139.8939  164.1598 C.2     1  UNL1        0.3168
      7 O         141.5718  139.7915  162.7583 O.2     1  UNL1       -0.2501
      8 C         139.7893  139.2623  164.6787 C.3     1  UNL1        0.1052
      9 C         138.8355  138.4172  163.8872 C.3     1  UNL1        0.0119
     10 C         139.6527  139.6240  166.1280 C.3     1  UNL1        0.0816
     11 C         138.6116  139.2851  167.1533 C.3     1  UNL1        0.1154
     12 O         137.4382  138.4299  166.7764 O.3     1  UNL1       -0.3843
     13 C         138.7437  139.8014  168.5554 C.3     1  UNL1        0.0373
     14 C         139.9170  140.6566  168.9323 C.3     1  UNL1        0.0392
     15 C         138.8759  140.3177  169.9575 C.3     1  UNL1        0.0086
     16 C         140.0491  141.1729  170.3344 C.2     1  UNL1       -0.0196
     17 C         141.2224  142.0281  170.7112 C.2     1  UNL1        0.0374
     18 C         142.2635  142.3670  169.6860 C.2     1  UNL1        0.1909
     19 O         143.4369  143.2222  170.0629 O.2     1  UNL1       -0.2869
     20 H         137.5053  138.1831  165.8407 H       1  UNL1        0.2103
@<TRIPOS>BOND
     1     1     2    1
     2     2     3    2
     3     3     4    1
     4     4     5    1
     5     5     6    1
     6     6     7    2
     7     6     8    1
     8     8     9    1
     9     8    10    1
    10    10    11    1
    11    11    12    1
    12    11    13    1
    13    13    14    1
    14    14    15    1
    15    14    16    1
    16    16    17    2
    17    17    18    1
    18    18    19    2
    19    18     2    1
    20    14     3    1
    21    10     4    1
    22    12    20    1
@<TRIPOS>MOLECULE
*****
 20 22 0 0 0
SMALL
GASTEIGER

@<TRIPOS>ATOM
      1 C         140.4043  143.5761  169.5409 C.3     1  UNL1        0.0338
      2 C         141.1617  142.2947  169.3554 C.2     1  UNL1        0.0128
      3 C         141.2956  141.6939  167.9876 C.2     1  UNL1       -0.0025
      4 C         140.6721  142.3745  166.8051 C.3     1  UNL1        0.1900
      5 O         139.8725  143.6374  166.6805 O.3     1  UNL1       -0.4479
      6 C         139.5123  143.8171  165.2355 C.2     1  UNL1        0.3168
      7 O         138.7150  144.9499  164.6599 O.2     1  UNL1       -0.2501
      8 C         140.0892  142.6653  164.4672 C.3     1  UNL1        0.1052
      9 C         139.9702  142.4439  162.9883 C.3     1  UNL1        0.0119
     10 C         140.8061  141.7737  165.4373 C.3     1  UNL1        0.0816
     11 C         141.5635  140.4923  165.2518 C.3     1  UNL1        0.1154
     12 O         141.6974  139.8915  163.8838 O.3     1  UNL1       -0.3843
     13 C         142.1870  139.8117  166.4342 C.3     1  UNL1        0.0373
     14 C         142.0530  140.4125  167.8021 C.3     1  UNL1        0.0392
     15 C         142.8105  139.1311  167.6166 C.3     1  UNL1        0.0086
     16 C         142.6765  139.7319  168.9845 C.2     1  UNL1       -0.0196
     17 C         142.5426  140.3327  170.3523 C.2     1  UNL1        0.0374
     18 C         141.7852  141.6141  170.5378 C.2     1  UNL1        0.1909
     19 O         141.6513  142.2149  171.9057 O.2     1  UNL1       -0.2869
     20 H         141.2402  140.4526  163.2381 H       1  UNL1        0.2103
@<TRIPOS>BOND
     1     1     2    1
     2     2     3    2
     3     3     4    1
     4     4     5    1
     5     5     6    1
     6     6     7    2
     7     6     8    1
     8     8     9    1
     9     8    10    1
    10    10    11    1
    11    11    12    1
    12    11    13    1
    13    13    14    1
    14    14    15    1
    15    14    16    1
    16    16    17    2
    17    17    18    1
    18    18    19    2
    19    18     2    1
    20    14     3    1
    21    10     4    1
    22    12    20    1
@<TRIPOS>MOLECULE
*****
 20 22 0 0 0
SMALL
GASTEIGER

@<TRIPOS>ATOM
      1 C         138.6022  138.0779  165.6258 C.3     1  UNL1        0.0338
      2 C         139.9099  138.6534  165.1689 C.2     1  UNL1        0.0128
      3 C         140.6897  139.5573  166.0770 C.2     1  UNL1       -0.0025
      4 C         140.1617  139.8859  167.4421 C.3     1  UNL1        0.1900
      5 O         138.9128  139.4710  168.1618 O.3     1  UNL1       -0.4479
      6 C         138.9207  140.1185  169.5148 C.2     1  UNL1        0.3168
      7 O         137.8608  139.9759  170.5667 O.2     1  UNL1       -0.2501
      8 C         140.1745  140.9336  169.6313 C.3     1  UNL1        0.1052
      9 C         140.5886  141.7494  170.8201 C.3     1  UNL1        0.0119
     10 C         140.9415  140.7899  168.3502 C.3     1  UNL1        0.0816
     11 C         142.2492  141.3653  167.8934 C.3     1  UNL1        0.1154
     12 O         143.0290  142.2694  168.8016 O.3     1  UNL1       -0.3843
     13 C         142.7771  141.0368  166.5284 C.3     1  UNL1        0.0373
     14 C         141.9974  140.1328  165.6201 C.3     1  UNL1        0.0392
     15 C         143.3051  140.7082  165.1633 C.3     1  UNL1        0.0086
     16 C         142.5253  139.8043  164.2551 C.2     1  UNL1       -0.0196
     17 C         141.7456  138.9003  163.3470 C.2     1  UNL1        0.0374
     18 C         140.4379  138.3248  163.8039 C.2     1  UNL1        0.1909
     19 O         139.6581  137.4208  162.8957 O.2     1  UNL1       -0.2869
     20 H         142.5509  142.3773  169.6386 H       1  UNL1        0.2103
@<TRIPOS>BOND
     1     1     2    1
     2     2     3    2
     3     3     4    1
     4     4     5    1
     5     5     6    1
     6     6     7    2
     7     6     8    1
     8     8     9    1
     9     8    10    1
    10    10    11    1
    11    11    12    1
    12    11    13    1
    13    13    14    1
    14    14    15    1
    15    14    16    1
    16    16    17    2
    17    17    18    1
    18    18    19    2
    19    18     2    1
    20    14     3    1
    21    10     4    1
    22    12    20    1
