@<TRIPOS>MOLECULE
*****
 32 35 0 0 0
SMALL
GASTEIGER

@<TRIPOS>ATOM
      1 C         141.1626  143.4524  159.1584 C.3     1  UNL1        0.2563
      2 N         140.3982  143.5561  160.4449 N.2     1  UNL1       -0.2434
      3 C         140.8959  143.3629  161.8466 C.2     1  UNL1        0.0795
      4 C         142.2809  143.0183  162.3083 C.ar    1  UNL1        0.0310
      5 C         142.3513  142.9182  163.8032 C.ar    1  UNL1        0.0027
      6 C         143.6510  142.5815  164.4720 C.ar    1  UNL1        0.0001
      7 C         144.8804  142.3449  163.6457 C.ar    1  UNL1        0.0013
      8 C         144.8100  142.4450  162.1507 C.ar    1  UNL1        0.0149
      9 C         143.5103  142.7816  161.4820 C.ar    1  UNL1        0.0554
     10 N         143.6582  142.8313  159.9901 N.am    1  UNL1       -0.2538
     11 C         145.0328  142.5445  159.4626 C.3     1  UNL1        0.1201
     12 C         142.6135  143.1298  158.9560 C.2     1  UNL1        0.2712
     13 O         143.0814  143.1020  157.5312 O.2     1  UNL1       -0.2705
     14 N         139.6208  145.3061  156.0063 N.am    1  UNL1       -0.2683
     15 C         140.4118  145.0540  157.2555 C.2     1  UNL1        0.3061
     16 O         141.2432  146.1513  157.8511 O.2     1  UNL1       -0.2524
     17 N         140.3716  143.7045  157.9092 N.am    1  UNL1       -0.2638
     18 H         139.0751  144.5859  155.6154 H       1  UNL1        0.1564
     19 H         139.8259  142.9843  157.5183 H       1  UNL1        0.1531
     20 C         138.2884  150.3284  155.9663 C.3     1  UNL1        0.0311
     21 C         138.9949  149.1668  155.3327 C.ar    1  UNL1       -0.0206
     22 C         139.7417  149.3547  154.0454 C.ar    1  UNL1       -0.0042
     23 C         140.4481  148.1931  153.4117 C.ar    1  UNL1        0.0010
     24 C         140.4078  146.8435  154.0654 C.ar    1  UNL1        0.0147
     25 C         139.6611  146.6557  155.3526 C.ar    1  UNL1        0.0513
     26 C         138.9546  147.8173  155.9863 C.ar    1  UNL1        0.0105
     27 C         139.8734  143.5375  162.9302 C.ar    1  UNL1        0.0174
     28 C         139.9040  144.7588  163.8006 C.ar    1  UNL1        0.0015
     29 C         138.8815  144.9333  164.8841 C.ar    1  UNL1        0.0000
     30 C         137.8284  143.8866  165.0972 C.ar    1  UNL1        0.0000
     31 C         137.7978  142.6655  164.2269 C.ar    1  UNL1        0.0000
     32 C         138.8202  142.4908  163.1433 C.ar    1  UNL1        0.0015
@<TRIPOS>BOND
     1    20    21    1
     2    21    22   ar
     3    22    23   ar
     4    23    24   ar
     5    24    25   ar
     6    25    14    1
     7    14    15   am
     8    15    16    2
     9    15    17   am
    10     1    17    1
    11     1     2    1
    12     2     3    2
    13     3    27    1
    14    27    28   ar
    15    28    29   ar
    16    29    30   ar
    17    30    31   ar
    18    31    32   ar
    19     3     4    1
    20     4     5   ar
    21     5     6   ar
    22     6     7   ar
    23     7     8   ar
    24     8     9   ar
    25     9    10    1
    26    10    11    1
    27    10    12   am
    28    12    13    2
    29    25    26   ar
    30    26    21   ar
    31    12     1    1
    32    32    27   ar
    33     9     4   ar
    34    14    18    1
    35    17    19    1
@<TRIPOS>MOLECULE
*****
 32 35 0 0 0
SMALL
GASTEIGER

@<TRIPOS>ATOM
      1 C         142.8067  143.0257  161.7155 C.3     1  UNL1        0.2563
      2 N         141.7808  141.9338  161.7890 N.2     1  UNL1       -0.2434
      3 C         141.3008  141.1813  162.9946 C.2     1  UNL1        0.0795
      4 C         141.7279  141.3349  164.4243 C.ar    1  UNL1        0.0310
      5 C         140.9952  140.3811  165.3206 C.ar    1  UNL1        0.0027
      6 C         141.2753  140.3712  166.7941 C.ar    1  UNL1        0.0001
      7 C         142.2880  141.3152  167.3714 C.ar    1  UNL1        0.0013
      8 C         143.0207  142.2690  166.4751 C.ar    1  UNL1        0.0149
      9 C         142.7406  142.2789  165.0015 C.ar    1  UNL1        0.0554
     10 N         143.5763  143.3024  164.2916 N.am    1  UNL1       -0.2538
     11 C         144.5056  144.0989  165.1589 C.3     1  UNL1        0.1201
     12 C         143.6058  143.6348  162.8292 C.2     1  UNL1        0.2712
     13 O         144.5605  144.7197  162.4275 O.2     1  UNL1       -0.2705
     14 N         144.0466  143.3081  157.9561 N.am    1  UNL1       -0.2683
     15 C         143.7853  142.7518  159.3244 C.2     1  UNL1        0.3061
     16 O         144.2412  141.3651  159.6698 O.2     1  UNL1       -0.2524
     17 N         143.0680  143.5820  160.3472 N.am    1  UNL1       -0.2638
     18 H         143.7473  144.2182  157.7294 H       1  UNL1        0.1564
     19 H         142.7688  144.4921  160.1205 H       1  UNL1        0.1531
     20 C         148.4648  141.8286  155.6561 C.3     1  UNL1        0.0311
     21 C         146.9730  141.7381  155.7833 C.ar    1  UNL1       -0.0206
     22 C         146.1984  140.8172  154.8877 C.ar    1  UNL1       -0.0042
     23 C         144.7066  140.7267  155.0148 C.ar    1  UNL1        0.0010
     24 C         143.9893  141.5570  156.0377 C.ar    1  UNL1        0.0147
     25 C         144.7639  142.4778  156.9333 C.ar    1  UNL1        0.0513
     26 C         146.2557  142.5684  156.8061 C.ar    1  UNL1        0.0105
     27 C         140.2553  140.1372  162.7363 C.ar    1  UNL1        0.0174
     28 C         140.6414  138.6892  162.6708 C.ar    1  UNL1        0.0015
     29 C         139.5959  137.6451  162.4125 C.ar    1  UNL1        0.0000
     30 C         138.1642  138.0489  162.2197 C.ar    1  UNL1        0.0000
     31 C         137.7781  139.4968  162.2851 C.ar    1  UNL1        0.0000
     32 C         138.8235  140.5410  162.5434 C.ar    1  UNL1        0.0015
@<TRIPOS>BOND
     1    20    21    1
     2    21    22   ar
     3    22    23   ar
     4    23    24   ar
     5    24    25   ar
     6    25    14    1
     7    14    15   am
     8    15    16    2
     9    15    17   am
    10     1    17    1
    11     1     2    1
    12     2     3    2
    13     3    27    1
    14    27    28   ar
    15    28    29   ar
    16    29    30   ar
    17    30    31   ar
    18    31    32   ar
    19     3     4    1
    20     4     5   ar
    21     5     6   ar
    22     6     7   ar
    23     7     8   ar
    24     8     9   ar
    25     9    10    1
    26    10    11    1
    27    10    12   am
    28    12    13    2
    29    25    26   ar
    30    26    21   ar
    31    12     1    1
    32    32    27   ar
    33     9     4   ar
    34    14    18    1
    35    17    19    1
@<TRIPOS>MOLECULE
*****
 32 35 0 0 0
SMALL
GASTEIGER

@<TRIPOS>ATOM
      1 C         142.6342  142.0320  160.8585 C.3     1  UNL1        0.2563
      2 N         141.6321  142.6163  161.8095 N.2     1  UNL1       -0.2434
      3 C         140.8563  141.9253  162.8915 C.2     1  UNL1        0.0795
      4 C         140.8910  140.4796  163.2898 C.ar    1  UNL1        0.0310
      5 C         139.9542  140.2020  164.4279 C.ar    1  UNL1        0.0027
      6 C         139.8365  138.8126  164.9806 C.ar    1  UNL1        0.0001
      7 C         140.6557  137.7007  164.3952 C.ar    1  UNL1        0.0013
      8 C         141.5924  137.9782  163.2571 C.ar    1  UNL1        0.0149
      9 C         141.7101  139.3677  162.7044 C.ar    1  UNL1        0.0554
     10 N         142.6968  139.4269  161.5762 N.am    1  UNL1       -0.2538
     11 C         143.3599  138.1287  161.2227 C.3     1  UNL1        0.1201
     12 C         143.1081  140.6126  160.7547 C.2     1  UNL1        0.2712
     13 O         144.1281  140.3434  159.6884 O.2     1  UNL1       -0.2705
     14 N         143.0190  144.5274  157.7967 N.am    1  UNL1       -0.2683
     15 C         142.4102  143.5649  158.7729 C.2     1  UNL1        0.3061
     16 O         140.9684  143.1729  158.6396 O.2     1  UNL1       -0.2524
     17 N         143.2431  142.9945  159.8823 N.am    1  UNL1       -0.2638
     18 H         143.9652  144.7847  157.8841 H       1  UNL1        0.1564
     19 H         144.1893  143.2518  159.9698 H       1  UNL1        0.1531
     20 C         139.0072  147.4263  156.2150 C.3     1  UNL1        0.0311
     21 C         140.1801  146.5473  155.8964 C.ar    1  UNL1       -0.0206
     22 C         140.5201  146.2387  154.4683 C.ar    1  UNL1       -0.0042
     23 C         141.6931  145.3596  154.1498 C.ar    1  UNL1        0.0010
     24 C         142.5260  144.7892  155.2592 C.ar    1  UNL1        0.0147
     25 C         142.1860  145.0978  156.6872 C.ar    1  UNL1        0.0513
     26 C         141.0131  145.9769  157.0058 C.ar    1  UNL1        0.0105
     27 C         139.9222  142.7952  163.6795 C.ar    1  UNL1        0.0174
     28 C         138.5480  143.0885  163.1544 C.ar    1  UNL1        0.0015
     29 C         137.6139  143.9584  163.9424 C.ar    1  UNL1        0.0000
     30 C         138.0540  144.5349  165.2554 C.ar    1  UNL1        0.0000
     31 C         139.4281  144.2415  165.7804 C.ar    1  UNL1        0.0000
     32 C         140.3622  143.3717  164.9926 C.ar    1  UNL1        0.0015
@<TRIPOS>BOND
     1    20    21    1
     2    21    22   ar
     3    22    23   ar
     4    23    24   ar
     5    24    25   ar
     6    25    14    1
     7    14    15   am
     8    15    16    2
     9    15    17   am
    10     1    17    1
    11     1     2    1
    12     2     3    2
    13     3    27    1
    14    27    28   ar
    15    28    29   ar
    16    29    30   ar
    17    30    31   ar
    18    31    32   ar
    19     3     4    1
    20     4     5   ar
    21     5     6   ar
    22     6     7   ar
    23     7     8   ar
    24     8     9   ar
    25     9    10    1
    26    10    11    1
    27    10    12   am
    28    12    13    2
    29    25    26   ar
    30    26    21   ar
    31    12     1    1
    32    32    27   ar
    33     9     4   ar
    34    14    18    1
    35    17    19    1
@<TRIPOS>MOLECULE
*****
 32 35 0 0 0
SMALL
GASTEIGER

@<TRIPOS>ATOM
      1 C         139.8243  139.8418  162.8595 C.3     1  UNL1        0.2563
      2 N         140.6664  141.0551  163.1222 N.2     1  UNL1       -0.2434
      3 C         140.9885  141.7032  164.4360 C.2     1  UNL1        0.0795
      4 C         140.5481  141.2984  165.8116 C.ar    1  UNL1        0.0310
      5 C         141.0977  142.2228  166.8572 C.ar    1  UNL1        0.0027
      6 C         140.7759  141.9941  168.3043 C.ar    1  UNL1        0.0001
      7 C         139.9047  140.8410  168.7058 C.ar    1  UNL1        0.0013
      8 C         139.3551  139.9166  167.6602 C.ar    1  UNL1        0.0149
      9 C         139.6768  140.1453  166.2130 C.ar    1  UNL1        0.0554
     10 N         139.0308  139.1123  165.3381 N.am    1  UNL1       -0.2538
     11 C         138.2106  138.0774  166.0498 C.3     1  UNL1        0.1201
     12 C         139.0963  138.9771  163.8456 C.2     1  UNL1        0.2712
     13 O         138.3332  137.8252  163.2622 O.2     1  UNL1       -0.2705
     14 N         139.0067  140.0076  158.9795 N.am    1  UNL1       -0.2683
     15 C         139.1383  140.4093  160.4187 C.2     1  UNL1        0.3061
     16 O         138.7153  141.7803  160.8564 O.2     1  UNL1       -0.2524
     17 N         139.6928  139.4401  161.4203 N.am    1  UNL1       -0.2638
     18 H         139.2843  139.1078  158.6923 H       1  UNL1        0.1564
     19 H         139.9704  138.5403  161.1330 H       1  UNL1        0.1531
     20 C         135.2911  141.3643  155.6100 C.3     1  UNL1        0.0311
     21 C         136.5944  141.6552  156.2932 C.ar    1  UNL1       -0.0206
     22 C         137.3431  142.9155  155.9749 C.ar    1  UNL1       -0.0042
     23 C         138.6464  143.2064  156.6582 C.ar    1  UNL1        0.0010
     24 C         139.2009  142.2371  157.6597 C.ar    1  UNL1        0.0147
     25 C         138.4522  140.9769  157.9780 C.ar    1  UNL1        0.0513
     26 C         137.1489  140.6860  157.2947 C.ar    1  UNL1        0.0105
     27 C         141.8672  142.9168  164.3648 C.ar    1  UNL1        0.0174
     28 C         143.3143  142.8185  164.7475 C.ar    1  UNL1        0.0015
     29 C         144.1930  144.0321  164.6763 C.ar    1  UNL1        0.0000
     30 C         143.6246  145.3441  164.2225 C.ar    1  UNL1        0.0000
     31 C         142.1777  145.4423  163.8399 C.ar    1  UNL1        0.0000
     32 C         141.2989  144.2288  163.9110 C.ar    1  UNL1        0.0015
@<TRIPOS>BOND
     1    20    21    1
     2    21    22   ar
     3    22    23   ar
     4    23    24   ar
     5    24    25   ar
     6    25    14    1
     7    14    15   am
     8    15    16    2
     9    15    17   am
    10     1    17    1
    11     1     2    1
    12     2     3    2
    13     3    27    1
    14    27    28   ar
    15    28    29   ar
    16    29    30   ar
    17    30    31   ar
    18    31    32   ar
    19     3     4    1
    20     4     5   ar
    21     5     6   ar
    22     6     7   ar
    23     7     8   ar
    24     8     9   ar
    25     9    10    1
    26    10    11    1
    27    10    12   am
    28    12    13    2
    29    25    26   ar
    30    26    21   ar
    31    12     1    1
    32    32    27   ar
    33     9     4   ar
    34    14    18    1
    35    17    19    1
@<TRIPOS>MOLECULE
*****
 32 35 0 0 0
SMALL
GASTEIGER

@<TRIPOS>ATOM
      1 C         141.1021  141.9864  162.1981 C.3     1  UNL1        0.2563
      2 N         140.3682  141.0939  163.1546 N.2     1  UNL1       -0.2434
      3 C         140.9333  140.1255  164.1511 C.2     1  UNL1        0.0795
      4 C         142.3716  139.8105  164.4373 C.ar    1  UNL1        0.0310
      5 C         142.5020  138.7763  165.5159 C.ar    1  UNL1        0.0027
      6 C         143.8611  138.3177  165.9547 C.ar    1  UNL1        0.0001
      7 C         145.0897  138.8933  165.3150 C.ar    1  UNL1        0.0013
      8 C         144.9593  139.9275  164.2364 C.ar    1  UNL1        0.0149
      9 C         143.6002  140.3861  163.7976 C.ar    1  UNL1        0.0554
     10 N         143.6939  141.4188  162.7137 N.am    1  UNL1       -0.2538
     11 C         145.0831  141.7881  162.2850 C.3     1  UNL1        0.1201
     12 C         142.5822  142.1310  162.0018 C.2     1  UNL1        0.2712
     13 O         143.0065  143.1184  160.9555 O.2     1  UNL1       -0.2705
     14 N         139.0286  143.2550  159.0610 N.am    1  UNL1       -0.2683
     15 C         139.8885  142.3931  159.9372 C.2     1  UNL1        0.3061
     16 O         140.3949  141.0759  159.4284 O.2     1  UNL1       -0.2524
     17 N         140.2421  142.8483  161.3219 N.am    1  UNL1       -0.2638
     18 H         138.6962  144.1195  159.3949 H       1  UNL1        0.1564
     19 H         139.9098  143.7128  161.6558 H       1  UNL1        0.1531
     20 C         135.7513  140.8750  155.8059 C.3     1  UNL1        0.0311
     21 C         137.0363  141.6097  156.0487 C.ar    1  UNL1       -0.0206
     22 C         137.9678  141.8891  154.9065 C.ar    1  UNL1       -0.0042
     23 C         139.2528  142.6239  155.1492 C.ar    1  UNL1        0.0010
     24 C         139.6064  143.0791  156.5341 C.ar    1  UNL1        0.0147
     25 C         138.6750  142.7997  157.6761 C.ar    1  UNL1        0.0513
     26 C         137.3900  142.0650  157.4334 C.ar    1  UNL1        0.0105
     27 C         139.9268  139.3726  164.9697 C.ar    1  UNL1        0.0174
     28 C         139.4561  138.0206  164.5218 C.ar    1  UNL1        0.0015
     29 C         138.4496  137.2677  165.3404 C.ar    1  UNL1        0.0000
     30 C         137.9139  137.8667  166.6070 C.ar    1  UNL1        0.0000
     31 C         138.3846  139.2186  167.0549 C.ar    1  UNL1        0.0000
     32 C         139.3911  139.9716  166.2364 C.ar    1  UNL1        0.0015
@<TRIPOS>BOND
     1    20    21    1
     2    21    22   ar
     3    22    23   ar
     4    23    24   ar
     5    24    25   ar
     6    25    14    1
     7    14    15   am
     8    15    16    2
     9    15    17   am
    10     1    17    1
    11     1     2    1
    12     2     3    2
    13     3    27    1
    14    27    28   ar
    15    28    29   ar
    16    29    30   ar
    17    30    31   ar
    18    31    32   ar
    19     3     4    1
    20     4     5   ar
    21     5     6   ar
    22     6     7   ar
    23     7     8   ar
    24     8     9   ar
    25     9    10    1
    26    10    11    1
    27    10    12   am
    28    12    13    2
    29    25    26   ar
    30    26    21   ar
    31    12     1    1
    32    32    27   ar
    33     9     4   ar
    34    14    18    1
    35    17    19    1
@<TRIPOS>MOLECULE
*****
 32 35 0 0 0
SMALL
GASTEIGER

@<TRIPOS>ATOM
      1 C         143.3272  140.2954  157.7532 C.3     1  UNL1        0.2563
      2 N         143.7976  140.3109  159.1775 N.2     1  UNL1       -0.2434
      3 C         143.3409  141.1903  160.3036 C.2     1  UNL1        0.0795
      4 C         142.3012  142.2713  160.2837 C.ar    1  UNL1        0.0310
      5 C         142.1495  142.9107  161.6321 C.ar    1  UNL1        0.0027
      6 C         141.1579  144.0188  161.8293 C.ar    1  UNL1        0.0001
      7 C         140.3180  144.4874  160.6783 C.ar    1  UNL1        0.0013
      8 C         140.4697  143.8480  159.3299 C.ar    1  UNL1        0.0149
      9 C         141.4613  142.7399  159.1327 C.ar    1  UNL1        0.0554
     10 N         141.4537  142.2433  157.7173 N.am    1  UNL1       -0.2538
     11 C         140.4880  142.9247  156.7936 C.3     1  UNL1        0.1201
     12 C         142.2841  141.1554  157.1033 C.2     1  UNL1        0.2712
     13 O         142.0390  140.8927  155.6470 O.2     1  UNL1       -0.2705
     14 N         144.0754  136.8962  155.8465 N.am    1  UNL1       -0.2683
     15 C         143.4154  137.9052  156.7389 C.2     1  UNL1        0.3061
     16 O         142.1833  137.5327  157.5093 O.2     1  UNL1       -0.2524
     17 N         143.9872  139.2865  156.8608 N.am    1  UNL1       -0.2638
     18 H         144.8840  137.1406  155.3408 H       1  UNL1        0.1564
     19 H         144.7958  139.5309  156.3552 H       1  UNL1        0.1531
     20 C         141.4955  133.3205  153.0971 C.3     1  UNL1        0.0311
     21 C         142.2135  133.7271  154.3498 C.ar    1  UNL1       -0.0206
     22 C         142.3595  132.7523  155.4806 C.ar    1  UNL1       -0.0042
     23 C         143.0775  133.1588  156.7333 C.ar    1  UNL1        0.0010
     24 C         143.6495  134.5401  156.8552 C.ar    1  UNL1        0.0147
     25 C         143.5034  135.5149  155.7245 C.ar    1  UNL1        0.0513
     26 C         142.7855  135.1083  154.4718 C.ar    1  UNL1        0.0105
     27 C         144.0129  140.9579  161.6244 C.ar    1  UNL1        0.0174
     28 C         145.0722  141.9055  162.1040 C.ar    1  UNL1        0.0015
     29 C         145.7441  141.6732  163.4248 C.ar    1  UNL1        0.0000
     30 C         145.3568  140.4932  164.2660 C.ar    1  UNL1        0.0000
     31 C         144.2975  139.5456  163.7865 C.ar    1  UNL1        0.0000
     32 C         143.6255  139.7779  162.4657 C.ar    1  UNL1        0.0015
@<TRIPOS>BOND
     1    20    21    1
     2    21    22   ar
     3    22    23   ar
     4    23    24   ar
     5    24    25   ar
     6    25    14    1
     7    14    15   am
     8    15    16    2
     9    15    17   am
    10     1    17    1
    11     1     2    1
    12     2     3    2
    13     3    27    1
    14    27    28   ar
    15    28    29   ar
    16    29    30   ar
    17    30    31   ar
    18    31    32   ar
    19     3     4    1
    20     4     5   ar
    21     5     6   ar
    22     6     7   ar
    23     7     8   ar
    24     8     9   ar
    25     9    10    1
    26    10    11    1
    27    10    12   am
    28    12    13    2
    29    25    26   ar
    30    26    21   ar
    31    12     1    1
    32    32    27   ar
    33     9     4   ar
    34    14    18    1
    35    17    19    1
@<TRIPOS>MOLECULE
*****
 32 35 0 0 0
SMALL
GASTEIGER

@<TRIPOS>ATOM
      1 C         142.8166  140.3592  163.1710 C.3     1  UNL1        0.2563
      2 N         141.6612  141.2616  163.4887 N.2     1  UNL1       -0.2434
      3 C         140.9780  141.4773  164.8066 C.2     1  UNL1        0.0795
      4 C         141.2813  140.8441  166.1321 C.ar    1  UNL1        0.0310
      5 C         140.3535  141.3398  167.2014 C.ar    1  UNL1        0.0027
      6 C         140.4872  140.8301  168.6057 C.ar    1  UNL1        0.0001
      7 C         141.5487  139.8247  168.9408 C.ar    1  UNL1        0.0013
      8 C         142.4765  139.3290  167.8716 C.ar    1  UNL1        0.0149
      9 C         142.3428  139.8387  166.4672 C.ar    1  UNL1        0.0554
     10 N         143.3632  139.2182  165.5595 N.am    1  UNL1       -0.2538
     11 C         144.2960  138.2361  166.2040 C.3     1  UNL1        0.1201
     12 C         143.5741  139.4498  164.0926 C.2     1  UNL1        0.2712
     13 O         144.6898  138.6688  163.4642 O.2     1  UNL1       -0.2705
     14 N         142.9834  139.5881  159.2816 N.am    1  UNL1       -0.2683
     15 C         142.5249  139.5800  160.7098 C.2     1  UNL1        0.3061
     16 O         141.3160  138.7846  161.1049 O.2     1  UNL1       -0.2524
     17 N         143.2751  140.3673  161.7429 N.am    1  UNL1       -0.2638
     18 H         143.7768  140.1102  159.0223 H       1  UNL1        0.1564
     19 H         144.0685  140.8894  161.4835 H       1  UNL1        0.1531
     20 C         139.0090  139.1579  155.9621 C.3     1  UNL1        0.0311
     21 C         140.2459  138.5857  156.5888 C.ar    1  UNL1       -0.0206
     22 C         140.7324  137.2262  156.1824 C.ar    1  UNL1       -0.0042
     23 C         141.9693  136.6540  156.8091 C.ar    1  UNL1        0.0010
     24 C         142.7196  137.4414  157.8422 C.ar    1  UNL1        0.0147
     25 C         142.2331  138.8008  158.2485 C.ar    1  UNL1        0.0513
     26 C         140.9962  139.3730  157.6218 C.ar    1  UNL1        0.0105
     27 C         139.8411  142.4558  164.7977 C.ar    1  UNL1        0.0174
     28 C         138.4858  142.0264  164.3193 C.ar    1  UNL1        0.0015
     29 C         137.3488  143.0048  164.3104 C.ar    1  UNL1        0.0000
     30 C         137.5672  144.4126  164.7799 C.ar    1  UNL1        0.0000
     31 C         138.9224  144.8420  165.2583 C.ar    1  UNL1        0.0000
     32 C         140.0594  143.8636  165.2672 C.ar    1  UNL1        0.0015
@<TRIPOS>BOND
     1    20    21    1
     2    21    22   ar
     3    22    23   ar
     4    23    24   ar
     5    24    25   ar
     6    25    14    1
     7    14    15   am
     8    15    16    2
     9    15    17   am
    10     1    17    1
    11     1     2    1
    12     2     3    2
    13     3    27    1
    14    27    28   ar
    15    28    29   ar
    16    29    30   ar
    17    30    31   ar
    18    31    32   ar
    19     3     4    1
    20     4     5   ar
    21     5     6   ar
    22     6     7   ar
    23     7     8   ar
    24     8     9   ar
    25     9    10    1
    26    10    11    1
    27    10    12   am
    28    12    13    2
    29    25    26   ar
    30    26    21   ar
    31    12     1    1
    32    32    27   ar
    33     9     4   ar
    34    14    18    1
    35    17    19    1
@<TRIPOS>MOLECULE
*****
 32 35 0 0 0
SMALL
GASTEIGER

@<TRIPOS>ATOM
      1 C         143.4002  138.7789  160.1565 C.3     1  UNL1        0.2563
      2 N         143.0279  137.8766  159.0174 N.2     1  UNL1       -0.2434
      3 C         143.0174  138.1805  157.5486 C.2     1  UNL1        0.0795
      4 C         143.3765  139.4617  156.8559 C.ar    1  UNL1        0.0310
      5 C         143.2286  139.3404  155.3682 C.ar    1  UNL1        0.0027
      6 C         143.5391  140.5129  154.4857 C.ar    1  UNL1        0.0001
      7 C         143.9974  141.8066  155.0909 C.ar    1  UNL1        0.0013
      8 C         144.1453  141.9278  156.5786 C.ar    1  UNL1        0.0149
      9 C         143.8349  140.7554  157.4611 C.ar    1  UNL1        0.0554
     10 N         144.0473  141.0874  158.9084 N.am    1  UNL1       -0.2538
     11 C         144.5151  142.4837  159.1939 C.3     1  UNL1        0.1201
     12 C         143.8539  140.2078  160.1080 C.2     1  UNL1        0.2712
     13 O         144.1537  140.8408  161.4344 O.2     1  UNL1       -0.2705
     14 N         142.0614  137.9118  163.7905 N.am    1  UNL1       -0.2683
     15 C         142.1553  138.5188  162.4220 C.2     1  UNL1        0.3061
     16 O         141.0979  139.4726  161.9504 O.2     1  UNL1       -0.2524
     17 N         143.3064  138.1719  161.5250 N.am    1  UNL1       -0.2638
     18 H         142.7554  137.2858  164.0999 H       1  UNL1        0.1564
     19 H         144.0003  137.5459  161.8344 H       1  UNL1        0.1531
     20 C         140.0151  140.8571  167.5505 C.3     1  UNL1        0.0311
     21 C         139.8871  139.7314  166.5674 C.ar    1  UNL1       -0.0206
     22 C         138.6080  138.9526  166.4814 C.ar    1  UNL1       -0.0042
     23 C         138.4800  137.8268  165.4984 C.ar    1  UNL1        0.0010
     24 C         139.6312  137.4799  164.6014 C.ar    1  UNL1        0.0147
     25 C         140.9103  138.2587  164.6875 C.ar    1  UNL1        0.0513
     26 C         141.0382  139.3845  165.6705 C.ar    1  UNL1        0.0105
     27 C         142.5914  137.0543  156.6540 C.ar    1  UNL1        0.0174
     28 C         143.6086  136.0793  156.1394 C.ar    1  UNL1        0.0015
     29 C         143.1827  134.9531  155.2449 C.ar    1  UNL1        0.0000
     30 C         141.7395  134.8019  154.8649 C.ar    1  UNL1        0.0000
     31 C         140.7223  135.7768  155.3794 C.ar    1  UNL1        0.0000
     32 C         141.1482  136.9030  156.2740 C.ar    1  UNL1        0.0015
@<TRIPOS>BOND
     1    20    21    1
     2    21    22   ar
     3    22    23   ar
     4    23    24   ar
     5    24    25   ar
     6    25    14    1
     7    14    15   am
     8    15    16    2
     9    15    17   am
    10     1    17    1
    11     1     2    1
    12     2     3    2
    13     3    27    1
    14    27    28   ar
    15    28    29   ar
    16    29    30   ar
    17    30    31   ar
    18    31    32   ar
    19     3     4    1
    20     4     5   ar
    21     5     6   ar
    22     6     7   ar
    23     7     8   ar
    24     8     9   ar
    25     9    10    1
    26    10    11    1
    27    10    12   am
    28    12    13    2
    29    25    26   ar
    30    26    21   ar
    31    12     1    1
    32    32    27   ar
    33     9     4   ar
    34    14    18    1
    35    17    19    1
@<TRIPOS>MOLECULE
*****
 32 35 0 0 0
SMALL
GASTEIGER

@<TRIPOS>ATOM
      1 C         141.6794  142.6720  162.9431 C.3     1  UNL1        0.2563
      2 N         140.8228  141.7516  163.7612 N.2     1  UNL1       -0.2434
      3 C         141.2434  140.5803  164.5984 C.2     1  UNL1        0.0795
      4 C         142.6243  140.0399  164.8245 C.ar    1  UNL1        0.0310
      5 C         142.6044  138.8490  165.7362 C.ar    1  UNL1        0.0027
      6 C         143.8859  138.1557  166.0923 C.ar    1  UNL1        0.0001
      7 C         145.1874  138.6532  165.5368 C.ar    1  UNL1        0.0013
      8 C         145.2073  139.8442  164.6251 C.ar    1  UNL1        0.0149
      9 C         143.9258  140.5375  164.2689 C.ar    1  UNL1        0.0554
     10 N         144.1677  141.6983  163.3502 N.am    1  UNL1       -0.2538
     11 C         145.5986  141.9414  162.9716 C.3     1  UNL1        0.1201
     12 C         143.1680  142.6483  162.7601 C.2     1  UNL1        0.2712
     13 O         143.7313  143.7156  161.8694 O.2     1  UNL1       -0.2705
     14 N         140.0133  144.7447  159.9973 N.am    1  UNL1       -0.2683
     15 C         140.7417  143.6568  160.7293 C.2     1  UNL1        0.3061
     16 O         141.2609  142.4659  159.9795 O.2     1  UNL1       -0.2524
     17 N         140.9509  143.7599  162.2110 N.am    1  UNL1       -0.2638
     18 H         139.6725  145.5264  160.4893 H       1  UNL1        0.1564
     19 H         140.6102  144.5415  162.7031 H       1  UNL1        0.1531
     20 C         140.3952  146.8097  155.2443 C.3     1  UNL1        0.0311
     21 C         139.9951  145.6741  156.1390 C.ar    1  UNL1       -0.0206
     22 C         139.3857  144.4356  155.5519 C.ar    1  UNL1       -0.0042
     23 C         138.9855  143.3001  156.4466 C.ar    1  UNL1        0.0010
     24 C         139.1947  143.4031  157.9284 C.ar    1  UNL1        0.0147
     25 C         139.8041  144.6417  158.5154 C.ar    1  UNL1        0.0513
     26 C         140.2043  145.7772  157.6207 C.ar    1  UNL1        0.0105
     27 C         140.1366  139.8531  165.3029 C.ar    1  UNL1        0.0174
     28 C         139.6308  140.3547  166.6230 C.ar    1  UNL1        0.0015
     29 C         138.5240  139.6275  167.3275 C.ar    1  UNL1        0.0000
     30 C         137.9232  138.3986  166.7119 C.ar    1  UNL1        0.0000
     31 C         138.4290  137.8970  165.3920 C.ar    1  UNL1        0.0000
     32 C         139.5357  138.6242  164.6874 C.ar    1  UNL1        0.0015
@<TRIPOS>BOND
     1    20    21    1
     2    21    22   ar
     3    22    23   ar
     4    23    24   ar
     5    24    25   ar
     6    25    14    1
     7    14    15   am
     8    15    16    2
     9    15    17   am
    10     1    17    1
    11     1     2    1
    12     2     3    2
    13     3    27    1
    14    27    28   ar
    15    28    29   ar
    16    29    30   ar
    17    30    31   ar
    18    31    32   ar
    19     3     4    1
    20     4     5   ar
    21     5     6   ar
    22     6     7   ar
    23     7     8   ar
    24     8     9   ar
    25     9    10    1
    26    10    11    1
    27    10    12   am
    28    12    13    2
    29    25    26   ar
    30    26    21   ar
    31    12     1    1
    32    32    27   ar
    33     9     4   ar
    34    14    18    1
    35    17    19    1
