@<TRIPOS>MOLECULE
*****
 38 42 0 0 0
SMALL
GASTEIGER

@<TRIPOS>ATOM
      1 C         143.2588  141.3588  164.0767 C.ar    1  UNL1        0.0502
      2 C         144.5361  140.8022  163.5210 C.ar    1  UNL1        0.0143
      3 C         144.7786  140.8155  162.0408 C.ar    1  UNL1       -0.0030
      4 C         143.7440  141.3853  161.1164 C.ar    1  UNL1       -0.0223
      5 C         142.4667  141.9419  161.6720 C.ar    1  UNL1       -0.0034
      6 C         142.2242  141.9287  163.1522 C.ar    1  UNL1        0.0089
      7 C         143.9866  141.3986  159.6361 C.3     1  UNL1        0.0257
      8 C         144.7193  142.5461  159.0064 C.3     1  UNL1        0.0259
      9 C         144.9619  142.5593  157.5262 C.3     1  UNL1        0.0940
     10 N         144.4718  141.4251  156.6757 N.am    1  UNL1       -0.2760
     11 C         144.7144  141.4383  155.1955 C.2     1  UNL1        0.2505
     12 O         144.2243  140.3041  154.3450 O.2     1  UNL1       -0.2699
     13 C         143.7391  140.2776  157.3054 C.3     1  UNL1        0.0940
     14 C         143.4965  140.2644  158.7856 C.3     1  UNL1        0.0259
     15 C         145.4471  142.5857  154.5659 C.ar    1  UNL1        0.0727
     16 C         146.9442  142.5616  154.4772 C.ar    1  UNL1        0.0077
     17 C         147.6769  143.7091  153.8475 C.ar    1  UNL1        0.0208
     18 C         146.9124  144.8807  153.3065 C.ar    1  UNL1        0.0989
     19 N         145.4152  144.9049  153.3952 N.ar    1  UNL1       -0.2422
     20 C         144.6825  143.7575  154.0248 C.ar    1  UNL1        0.1034
     21 C         140.9469  142.4853  163.7079 C.2     1  UNL1       -0.0253
     22 C         139.7380  141.6063  163.8341 C.2     1  UNL1       -0.0303
     23 C         138.4607  142.1629  164.3898 C.3     1  UNL1        0.0257
     24 C         138.3924  143.5985  164.8194 C.3     1  UNL1        0.0050
     25 C         139.6013  144.4774  164.6932 C.3     1  UNL1        0.0050
     26 C         140.8786  143.9208  164.1375 C.3     1  UNL1        0.0261
     27 C         142.6618  140.0619  166.2473 C.2     1  UNL1        0.2837
     28 O         142.5501  138.7915  165.4575 O.2     1  UNL1       -0.2665
     29 N         143.0162  141.3455  165.5569 N.am    1  UNL1       -0.2779
     30 H         143.0896  142.1793  166.0753 H       1  UNL1        0.1553
     31 C         141.6862  140.6841  169.9522 C.ar    1  UNL1        0.1469
     32 C         142.4055  139.3720  170.0583 C.ar    1  UNL1        0.1282
     33 N         142.8585  138.9793  168.6834 N.ar    1  UNL1       -0.2205
     34 C         142.4192  140.0486  167.7275 C.ar    1  UNL1        0.1958
     35 N         141.6947  141.1022  168.5117 N.ar    1  UNL1       -0.3257
     36 H         141.2950  141.9239  168.1452 H       1  UNL1        0.1682
     37 N         140.4481  142.2050  172.2225 N.1     1  UNL1       -0.1893
     38 C         141.0672  141.4446  171.0873 C.1     1  UNL1        0.1194
@<TRIPOS>BOND
     1    37    38    3
     2    38    31    1
     3    31    32   ar
     4    32    33   ar
     5    33    34   ar
     6    34    27    1
     7    27    28    2
     8    27    29   am
     9    29     1    1
    10     1     2   ar
    11     2     3   ar
    12     3     4   ar
    13     4     7    1
    14     7     8    1
    15     8     9    1
    16     9    10    1
    17    10    11   am
    18    11    12    2
    19    11    15    1
    20    15    16   ar
    21    16    17   ar
    22    17    18   ar
    23    18    19   ar
    24    19    20   ar
    25    10    13    1
    26    13    14    1
    27     4     5   ar
    28     5     6   ar
    29     6    21    1
    30    21    22    2
    31    22    23    1
    32    23    24    1
    33    24    25    1
    34    25    26    1
    35    34    35   ar
    36    35    31   ar
    37     6     1   ar
    38    26    21    1
    39    14     7    1
    40    20    15   ar
    41    29    30    1
    42    35    36    1
@<TRIPOS>MOLECULE
*****
 38 42 0 0 0
SMALL
GASTEIGER

@<TRIPOS>ATOM
      1 C         143.0638  139.9675  164.0477 C.ar    1  UNL1        0.0502
      2 C         144.3111  140.1773  163.2413 C.ar    1  UNL1        0.0143
      3 C         144.3154  139.8703  161.7731 C.ar    1  UNL1       -0.0030
      4 C         143.0725  139.3535  161.1113 C.ar    1  UNL1       -0.0223
      5 C         141.8252  139.1437  161.9176 C.ar    1  UNL1       -0.0034
      6 C         141.8209  139.4507  163.3858 C.ar    1  UNL1        0.0089
      7 C         143.0769  139.0465  159.6430 C.3     1  UNL1        0.0257
      8 C         142.5645  137.7251  159.1515 C.3     1  UNL1        0.0259
      9 C         142.5689  137.4181  157.6832 C.3     1  UNL1        0.0940
     10 N         143.0856  138.4325  156.7065 N.am    1  UNL1       -0.2760
     11 C         143.0900  138.1255  155.2383 C.2     1  UNL1        0.2505
     12 O         143.6068  139.1399  154.2615 O.2     1  UNL1       -0.2699
     13 C         143.5980  139.7538  157.1980 C.3     1  UNL1        0.0940
     14 C         143.5936  140.0608  158.6662 C.3     1  UNL1        0.0259
     15 C         142.5776  136.8042  154.7468 C.ar    1  UNL1        0.0727
     16 C         143.3537  135.5501  155.0203 C.ar    1  UNL1        0.0077
     17 C         142.8413  134.2287  154.5288 C.ar    1  UNL1        0.0208
     18 C         141.5528  134.1616  153.7638 C.ar    1  UNL1        0.0989
     19 N         140.7767  135.4157  153.4903 N.ar    1  UNL1       -0.2422
     20 C         141.2891  136.7370  153.9818 C.ar    1  UNL1        0.1034
     21 C         140.5736  139.2409  164.1923 C.2     1  UNL1       -0.0253
     22 C         140.1977  137.8619  164.6472 C.2     1  UNL1       -0.0303
     23 C         138.9505  137.6521  165.4537 C.3     1  UNL1        0.0257
     24 C         138.0790  138.8214  165.8052 C.3     1  UNL1        0.0050
     25 C         138.4549  140.2004  165.3502 C.3     1  UNL1        0.0050
     26 C         139.7022  140.4102  164.5438 C.3     1  UNL1        0.0261
     27 C         142.7608  141.6658  165.9904 C.2     1  UNL1        0.2837
     28 O         142.4666  142.7501  164.9964 O.2     1  UNL1       -0.2665
     29 N         143.0595  140.2745  165.5160 N.am    1  UNL1       -0.2779
     30 H         143.2526  139.5629  166.1683 H       1  UNL1        0.1553
     31 C         142.0436  142.1975  169.7676 C.ar    1  UNL1        0.1469
     32 C         143.4558  142.6933  169.6682 C.ar    1  UNL1        0.1282
     33 N         143.8963  142.5545  168.2411 N.ar    1  UNL1       -0.2205
     34 C         142.7564  141.9729  167.4586 C.ar    1  UNL1        0.1958
     35 N         141.6114  141.7522  168.4020 N.ar    1  UNL1       -0.3257
     36 H         140.7308  141.3805  168.1663 H       1  UNL1        0.1682
     37 N         140.3763  142.1114  172.2602 N.1     1  UNL1       -0.1893
     38 C         141.2099  142.1544  171.0139 C.1     1  UNL1        0.1194
@<TRIPOS>BOND
     1    37    38    3
     2    38    31    1
     3    31    32   ar
     4    32    33   ar
     5    33    34   ar
     6    34    27    1
     7    27    28    2
     8    27    29   am
     9    29     1    1
    10     1     2   ar
    11     2     3   ar
    12     3     4   ar
    13     4     7    1
    14     7     8    1
    15     8     9    1
    16     9    10    1
    17    10    11   am
    18    11    12    2
    19    11    15    1
    20    15    16   ar
    21    16    17   ar
    22    17    18   ar
    23    18    19   ar
    24    19    20   ar
    25    10    13    1
    26    13    14    1
    27     4     5   ar
    28     5     6   ar
    29     6    21    1
    30    21    22    2
    31    22    23    1
    32    23    24    1
    33    24    25    1
    34    25    26    1
    35    34    35   ar
    36    35    31   ar
    37     6     1   ar
    38    26    21    1
    39    14     7    1
    40    20    15   ar
    41    29    30    1
    42    35    36    1
@<TRIPOS>MOLECULE
*****
 38 42 0 0 0
SMALL
GASTEIGER

@<TRIPOS>ATOM
      1 C         142.9072  141.1840  163.7337 C.ar    1  UNL1        0.0502
      2 C         144.0223  142.0661  163.2560 C.ar    1  UNL1        0.0143
      3 C         144.3830  142.0971  161.8003 C.ar    1  UNL1       -0.0030
      4 C         143.6286  141.2460  160.8224 C.ar    1  UNL1       -0.0223
      5 C         142.5135  140.3638  161.3001 C.ar    1  UNL1       -0.0034
      6 C         142.1528  140.3328  162.7557 C.ar    1  UNL1        0.0089
      7 C         143.9894  141.2770  159.3667 C.3     1  UNL1        0.0257
      8 C         144.6884  142.4735  158.7926 C.3     1  UNL1        0.0259
      9 C         145.0492  142.5045  157.3369 C.3     1  UNL1        0.0940
     10 N         144.7109  141.3390  156.4554 N.am    1  UNL1       -0.2760
     11 C         145.0716  141.3700  154.9998 C.2     1  UNL1        0.2505
     12 O         144.7333  140.2044  154.1183 O.2     1  UNL1       -0.2699
     13 C         144.0118  140.1424  157.0296 C.3     1  UNL1        0.0940
     14 C         143.6511  140.1114  158.4852 C.3     1  UNL1        0.0259
     15 C         145.7706  142.5665  154.4257 C.ar    1  UNL1        0.0727
     16 C         147.2685  142.5960  154.3513 C.ar    1  UNL1        0.0077
     17 C         147.9675  143.7926  153.7772 C.ar    1  UNL1        0.0208
     18 C         147.1687  144.9596  153.2774 C.ar    1  UNL1        0.0989
     19 N         145.6708  144.9302  153.3518 N.ar    1  UNL1       -0.2422
     20 C         144.9718  143.7337  153.9259 C.ar    1  UNL1        0.1034
     21 C         141.0376  139.4506  163.2335 C.2     1  UNL1       -0.0253
     22 C         141.3074  138.0120  163.5615 C.2     1  UNL1       -0.0303
     23 C         140.1923  137.1298  164.0392 C.3     1  UNL1        0.0257
     24 C         138.8074  137.6862  164.1890 C.3     1  UNL1        0.0050
     25 C         138.5376  139.1248  163.8610 C.3     1  UNL1        0.0050
     26 C         139.6527  140.0070  163.3832 C.3     1  UNL1        0.0261
     27 C         143.0894  140.0698  166.0736 C.2     1  UNL1        0.2837
     28 O         143.9931  139.0177  165.5023 O.2     1  UNL1       -0.2665
     29 N         142.5464  141.1529  165.1893 N.am    1  UNL1       -0.2779
     30 H         141.9533  141.8435  165.5643 H       1  UNL1        0.1553
     31 C         141.8586  140.6686  169.7057 C.ar    1  UNL1        0.1469
     32 C         142.4886  139.3132  169.8329 C.ar    1  UNL1        0.1282
     33 N         143.0263  138.9239  168.4878 N.ar    1  UNL1       -0.2205
     34 C         142.7287  140.0387  167.5293 C.ar    1  UNL1        0.1958
     35 N         142.0070  141.1170  168.2820 N.ar    1  UNL1       -0.3257
     36 H         141.6870  141.9693  167.9073 H       1  UNL1        0.1682
     37 N         140.5344  142.2117  171.9114 N.1     1  UNL1       -0.1893
     38 C         141.1965  141.4402  170.8085 C.1     1  UNL1        0.1194
@<TRIPOS>BOND
     1    37    38    3
     2    38    31    1
     3    31    32   ar
     4    32    33   ar
     5    33    34   ar
     6    34    27    1
     7    27    28    2
     8    27    29   am
     9    29     1    1
    10     1     2   ar
    11     2     3   ar
    12     3     4   ar
    13     4     7    1
    14     7     8    1
    15     8     9    1
    16     9    10    1
    17    10    11   am
    18    11    12    2
    19    11    15    1
    20    15    16   ar
    21    16    17   ar
    22    17    18   ar
    23    18    19   ar
    24    19    20   ar
    25    10    13    1
    26    13    14    1
    27     4     5   ar
    28     5     6   ar
    29     6    21    1
    30    21    22    2
    31    22    23    1
    32    23    24    1
    33    24    25    1
    34    25    26    1
    35    34    35   ar
    36    35    31   ar
    37     6     1   ar
    38    26    21    1
    39    14     7    1
    40    20    15   ar
    41    29    30    1
    42    35    36    1
@<TRIPOS>MOLECULE
*****
 38 42 0 0 0
SMALL
GASTEIGER

@<TRIPOS>ATOM
      1 C         140.8671  139.1596  164.0402 C.ar    1  UNL1        0.0502
      2 C         141.3492  137.8737  163.4368 C.ar    1  UNL1        0.0143
      3 C         141.3564  137.7007  161.9469 C.ar    1  UNL1       -0.0030
      4 C         140.8815  138.8136  161.0603 C.ar    1  UNL1       -0.0223
      5 C         140.3994  140.0995  161.6637 C.ar    1  UNL1       -0.0034
      6 C         140.3922  140.2725  163.1536 C.ar    1  UNL1        0.0089
      7 C         140.8887  138.6406  159.5703 C.3     1  UNL1        0.0257
      8 C         139.6310  138.8617  158.7835 C.3     1  UNL1        0.0259
      9 C         139.6382  138.6887  157.2934 C.3     1  UNL1        0.0940
     10 N         140.9032  138.2945  156.5903 N.am    1  UNL1       -0.2760
     11 C         140.9105  138.1214  155.1004 C.2     1  UNL1        0.2505
     12 O         142.1755  137.7272  154.3973 O.2     1  UNL1       -0.2699
     13 C         142.1610  138.0733  157.3773 C.3     1  UNL1        0.0940
     14 C         142.1537  138.2463  158.8672 C.3     1  UNL1        0.0259
     15 C         139.6528  138.3426  154.3136 C.ar    1  UNL1        0.0727
     16 C         138.6862  137.2135  154.1115 C.ar    1  UNL1        0.0077
     17 C         137.4284  137.4347  153.3246 C.ar    1  UNL1        0.0208
     18 C         137.1373  138.7850  152.7398 C.ar    1  UNL1        0.0989
     19 N         138.1039  139.9141  152.9419 N.ar    1  UNL1       -0.2422
     20 C         139.3616  139.6929  153.7287 C.ar    1  UNL1        0.1034
     21 C         139.9101  141.5584  163.7571 C.2     1  UNL1       -0.0253
     22 C         140.8929  142.6331  164.1163 C.2     1  UNL1       -0.0303
     23 C         140.4108  143.9190  164.7197 C.3     1  UNL1        0.0257
     24 C         138.9459  144.1302  164.9639 C.3     1  UNL1        0.0050
     25 C         137.9632  143.0554  164.6047 C.3     1  UNL1        0.0050
     26 C         138.4453  141.7695  164.0013 C.3     1  UNL1        0.0261
     27 C         142.1364  139.6388  166.2559 C.2     1  UNL1        0.2837
     28 O         143.4203  139.7718  165.4915 O.2     1  UNL1       -0.2665
     29 N         140.8598  139.3326  165.5302 N.am    1  UNL1       -0.2779
     30 H         140.0172  139.2453  166.0318 H       1  UNL1        0.1553
     31 C         141.6211  140.6358  169.9714 C.ar    1  UNL1        0.1469
     32 C         142.6153  139.5205  170.1058 C.ar    1  UNL1        0.1282
     33 N         142.9293  139.0113  168.7303 N.ar    1  UNL1       -0.2205
     34 C         142.1292  139.8118  167.7458 C.ar    1  UNL1        0.1958
     35 N         141.3208  140.8158  168.5129 N.ar    1  UNL1       -0.3257
     36 H         140.7017  141.4768  168.1268 H       1  UNL1        0.1682
     37 N         140.4408  142.2268  172.2244 N.1     1  UNL1       -0.1893
     38 C         141.0310  141.4313  171.0979 C.1     1  UNL1        0.1194
@<TRIPOS>BOND
     1    37    38    3
     2    38    31    1
     3    31    32   ar
     4    32    33   ar
     5    33    34   ar
     6    34    27    1
     7    27    28    2
     8    27    29   am
     9    29     1    1
    10     1     2   ar
    11     2     3   ar
    12     3     4   ar
    13     4     7    1
    14     7     8    1
    15     8     9    1
    16     9    10    1
    17    10    11   am
    18    11    12    2
    19    11    15    1
    20    15    16   ar
    21    16    17   ar
    22    17    18   ar
    23    18    19   ar
    24    19    20   ar
    25    10    13    1
    26    13    14    1
    27     4     5   ar
    28     5     6   ar
    29     6    21    1
    30    21    22    2
    31    22    23    1
    32    23    24    1
    33    24    25    1
    34    25    26    1
    35    34    35   ar
    36    35    31   ar
    37     6     1   ar
    38    26    21    1
    39    14     7    1
    40    20    15   ar
    41    29    30    1
    42    35    36    1
@<TRIPOS>MOLECULE
*****
 38 42 0 0 0
SMALL
GASTEIGER

@<TRIPOS>ATOM
      1 C         141.9777  140.4139  163.9707 C.ar    1  UNL1        0.0502
      2 C         143.0114  139.3780  163.6417 C.ar    1  UNL1        0.0143
      3 C         143.2694  139.0034  162.2124 C.ar    1  UNL1       -0.0030
      4 C         142.4937  139.6648  161.1120 C.ar    1  UNL1       -0.0223
      5 C         141.4600  140.7008  161.4409 C.ar    1  UNL1       -0.0034
      6 C         141.2020  141.0753  162.8703 C.ar    1  UNL1        0.0089
      7 C         142.7518  139.2902  159.6825 C.3     1  UNL1        0.0257
      8 C         142.3522  137.9352  159.1785 C.3     1  UNL1        0.0259
      9 C         142.6102  137.5606  157.7490 C.3     1  UNL1        0.0940
     10 N         143.2679  138.5411  156.8238 N.am    1  UNL1       -0.2760
     11 C         143.5259  138.1665  155.3944 C.2     1  UNL1        0.2505
     12 O         144.1836  139.1471  154.4692 O.2     1  UNL1       -0.2699
     13 C         143.6674  139.8962  157.3279 C.3     1  UNL1        0.0940
     14 C         143.4094  140.2707  158.7573 C.3     1  UNL1        0.0259
     15 C         143.1264  136.8115  154.8903 C.ar    1  UNL1        0.0727
     16 C         143.7684  135.5806  155.4584 C.ar    1  UNL1        0.0077
     17 C         143.3687  134.2255  154.9543 C.ar    1  UNL1        0.0208
     18 C         142.3272  134.1014  153.8821 C.ar    1  UNL1        0.0989
     19 N         141.6851  135.3322  153.3140 N.ar    1  UNL1       -0.2422
     20 C         142.0847  136.6873  153.8181 C.ar    1  UNL1        0.1034
     21 C         140.1683  142.1113  163.1993 C.2     1  UNL1       -0.0253
     22 C         140.5601  143.5556  163.3017 C.2     1  UNL1       -0.0303
     23 C         139.5265  144.5916  163.6307 C.3     1  UNL1        0.0257
     24 C         138.1009  144.1833  163.8573 C.3     1  UNL1        0.0050
     25 C         137.7092  142.7390  163.7550 C.3     1  UNL1        0.0050
     26 C         138.7429  141.7030  163.4260 C.3     1  UNL1        0.0261
     27 C         142.5251  141.8757  166.0476 C.2     1  UNL1        0.2837
     28 O         143.5886  142.5882  165.2657 O.2     1  UNL1       -0.2665
     29 N         141.7197  140.7885  165.4001 N.am    1  UNL1       -0.2779
     30 H         141.0217  140.3208  165.9132 H       1  UNL1        0.1553
     31 C         141.1321  142.8295  169.5426 C.ar    1  UNL1        0.1469
     32 C         142.6080  142.8240  169.8105 C.ar    1  UNL1        0.1282
     33 N         143.3095  142.4660  168.5338 N.ar    1  UNL1       -0.2205
     34 C         142.2671  142.2503  167.4770 C.ar    1  UNL1        0.1958
     35 N         140.9215  142.4749  168.1004 N.ar    1  UNL1       -0.3257
     36 H         140.0525  142.4024  167.6433 H       1  UNL1        0.1682
     37 N         138.9796  143.4421  171.5405 N.1     1  UNL1       -0.1893
     38 C         140.0559  143.1358  170.5415 C.1     1  UNL1        0.1194
@<TRIPOS>BOND
     1    37    38    3
     2    38    31    1
     3    31    32   ar
     4    32    33   ar
     5    33    34   ar
     6    34    27    1
     7    27    28    2
     8    27    29   am
     9    29     1    1
    10     1     2   ar
    11     2     3   ar
    12     3     4   ar
    13     4     7    1
    14     7     8    1
    15     8     9    1
    16     9    10    1
    17    10    11   am
    18    11    12    2
    19    11    15    1
    20    15    16   ar
    21    16    17   ar
    22    17    18   ar
    23    18    19   ar
    24    19    20   ar
    25    10    13    1
    26    13    14    1
    27     4     5   ar
    28     5     6   ar
    29     6    21    1
    30    21    22    2
    31    22    23    1
    32    23    24    1
    33    24    25    1
    34    25    26    1
    35    34    35   ar
    36    35    31   ar
    37     6     1   ar
    38    26    21    1
    39    14     7    1
    40    20    15   ar
    41    29    30    1
    42    35    36    1
@<TRIPOS>MOLECULE
*****
 38 42 0 0 0
SMALL
GASTEIGER

@<TRIPOS>ATOM
      1 C         140.6873  143.5241  163.9120 C.ar    1  UNL1        0.0502
      2 C         141.1042  144.8278  163.2983 C.ar    1  UNL1        0.0143
      3 C         140.8941  145.0680  161.8327 C.ar    1  UNL1       -0.0030
      4 C         140.2672  144.0045  160.9807 C.ar    1  UNL1       -0.0223
      5 C         139.8503  142.7008  161.5943 C.ar    1  UNL1       -0.0034
      6 C         140.0603  142.4606  163.0600 C.ar    1  UNL1        0.0089
      7 C         140.0571  144.2448  159.5150 C.3     1  UNL1        0.0257
      8 C         140.4344  145.5643  158.9096 C.3     1  UNL1        0.0259
      9 C         140.2244  145.8045  157.4439 C.3     1  UNL1        0.0940
     10 N         139.6370  144.7252  156.5836 N.am    1  UNL1       -0.2760
     11 C         139.4269  144.9654  155.1180 C.2     1  UNL1        0.2505
     12 O         138.8396  143.8861  154.2577 O.2     1  UNL1       -0.2699
     13 C         139.2597  143.4056  157.1891 C.3     1  UNL1        0.0940
     14 C         139.4698  143.1654  158.6547 C.3     1  UNL1        0.0259
     15 C         139.8042  146.2849  154.5127 C.ar    1  UNL1        0.0727
     16 C         139.1303  147.5425  154.9755 C.ar    1  UNL1        0.0077
     17 C         139.5077  148.8621  154.3701 C.ar    1  UNL1        0.0208
     18 C         140.5589  148.9240  153.3019 C.ar    1  UNL1        0.0989
     19 N         141.2328  147.6663  152.8390 N.ar    1  UNL1       -0.2422
     20 C         140.8555  146.3468  153.4444 C.ar    1  UNL1        0.1034
     21 C         139.6434  141.1569  163.6737 C.2     1  UNL1       -0.0253
     22 C         140.4563  139.9198  163.4310 C.2     1  UNL1       -0.0303
     23 C         140.0394  138.6162  164.0447 C.3     1  UNL1        0.0257
     24 C         138.8096  138.5495  164.9010 C.3     1  UNL1        0.0050
     25 C         137.9968  139.7866  165.1437 C.3     1  UNL1        0.0050
     26 C         138.4137  141.0903  164.5300 C.3     1  UNL1        0.0261
     27 C         142.1224  142.5590  165.8509 C.2     1  UNL1        0.2837
     28 O         143.1374  142.0745  164.8583 O.2     1  UNL1       -0.2665
     29 N         140.8973  143.2839  165.3777 N.am    1  UNL1       -0.2779
     30 H         140.2312  143.6019  166.0291 H       1  UNL1        0.1553
     31 C         141.9531  141.6934  169.6307 C.ar    1  UNL1        0.1469
     32 C         143.3584  142.2047  169.5131 C.ar    1  UNL1        0.1282
     33 N         143.5929  142.5911  168.0828 N.ar    1  UNL1       -0.2205
     34 C         142.3325  142.3188  167.3165 C.ar    1  UNL1        0.1958
     35 N         141.3191  141.7640  168.2731 N.ar    1  UNL1       -0.3257
     36 H         140.3992  141.4936  168.0493 H       1  UNL1        0.1682
     37 N         140.6409  140.7037  172.1404 N.1     1  UNL1       -0.1893
     38 C         141.2970  141.1986  170.8856 C.1     1  UNL1        0.1194
@<TRIPOS>BOND
     1    37    38    3
     2    38    31    1
     3    31    32   ar
     4    32    33   ar
     5    33    34   ar
     6    34    27    1
     7    27    28    2
     8    27    29   am
     9    29     1    1
    10     1     2   ar
    11     2     3   ar
    12     3     4   ar
    13     4     7    1
    14     7     8    1
    15     8     9    1
    16     9    10    1
    17    10    11   am
    18    11    12    2
    19    11    15    1
    20    15    16   ar
    21    16    17   ar
    22    17    18   ar
    23    18    19   ar
    24    19    20   ar
    25    10    13    1
    26    13    14    1
    27     4     5   ar
    28     5     6   ar
    29     6    21    1
    30    21    22    2
    31    22    23    1
    32    23    24    1
    33    24    25    1
    34    25    26    1
    35    34    35   ar
    36    35    31   ar
    37     6     1   ar
    38    26    21    1
    39    14     7    1
    40    20    15   ar
    41    29    30    1
    42    35    36    1
@<TRIPOS>MOLECULE
*****
 38 42 0 0 0
SMALL
GASTEIGER

@<TRIPOS>ATOM
      1 C         143.0400  140.0300  163.7756 C.ar    1  UNL1        0.0502
      2 C         143.8168  138.8693  163.2286 C.ar    1  UNL1        0.0143
      3 C         143.8302  138.6048  161.7522 C.ar    1  UNL1       -0.0030
      4 C         143.0667  139.5010  160.8228 C.ar    1  UNL1       -0.0223
      5 C         142.2899  140.6618  161.3697 C.ar    1  UNL1       -0.0034
      6 C         142.2766  140.9263  162.8461 C.ar    1  UNL1        0.0089
      7 C         143.0802  139.2364  159.3463 C.3     1  UNL1        0.0257
      8 C         142.4614  137.9825  158.8034 C.3     1  UNL1        0.0259
      9 C         142.4748  137.7179  157.3269 C.3     1  UNL1        0.0940
     10 N         143.1070  138.7074  156.3934 N.am    1  UNL1       -0.2760
     11 C         143.1204  138.4428  154.9170 C.2     1  UNL1        0.2505
     12 O         143.7526  139.4323  153.9835 O.2     1  UNL1       -0.2699
     13 C         143.7257  139.9613  156.9364 C.3     1  UNL1        0.0940
     14 C         143.7123  140.2259  158.4128 C.3     1  UNL1        0.0259
     15 C         142.5017  137.1889  154.3741 C.ar    1  UNL1        0.0727
     16 C         143.1297  135.8574  154.6616 C.ar    1  UNL1        0.0077
     17 C         142.5109  134.6034  154.1186 C.ar    1  UNL1        0.0208
     18 C         141.2642  134.6810  153.2882 C.ar    1  UNL1        0.0989
     19 N         140.6362  136.0125  153.0008 N.ar    1  UNL1       -0.2422
     20 C         141.2549  137.2665  153.5437 C.ar    1  UNL1        0.1034
     21 C         141.4997  142.0871  163.3931 C.2     1  UNL1       -0.0253
     22 C         142.1499  143.4332  163.5163 C.2     1  UNL1       -0.0303
     23 C         141.3731  144.5940  164.0633 C.3     1  UNL1        0.0257
     24 C         139.9462  144.4087  164.4870 C.3     1  UNL1        0.0050
     25 C         139.2960  143.0625  164.3638 C.3     1  UNL1        0.0050
     26 C         140.0729  141.9017  163.8168 C.3     1  UNL1        0.0261
     27 C         142.1683  139.4600  166.1557 C.2     1  UNL1        0.2837
     28 O         141.3234  138.3608  165.5830 O.2     1  UNL1       -0.2665
     29 N         143.0266  140.2946  165.2520 N.am    1  UNL1       -0.2779
     30 H         143.5811  141.0160  165.6279 H       1  UNL1        0.1553
     31 C         141.6132  140.6618  169.8044 C.ar    1  UNL1        0.1469
     32 C         142.6551  139.6013  170.0039 C.ar    1  UNL1        0.1282
     33 N         142.9898  139.0220  168.6614 N.ar    1  UNL1       -0.2205
     34 C         142.1548  139.7245  167.6321 C.ar    1  UNL1        0.1958
     35 N         141.3040  140.7379  168.3385 N.ar    1  UNL1       -0.3257
     36 H         140.6564  141.3463  167.9146 H       1  UNL1        0.1682
     37 N         140.3666  142.3366  171.9587 N.1     1  UNL1       -0.1893
     38 C         140.9899  141.4992  170.8815 C.1     1  UNL1        0.1194
@<TRIPOS>BOND
     1    37    38    3
     2    38    31    1
     3    31    32   ar
     4    32    33   ar
     5    33    34   ar
     6    34    27    1
     7    27    28    2
     8    27    29   am
     9    29     1    1
    10     1     2   ar
    11     2     3   ar
    12     3     4   ar
    13     4     7    1
    14     7     8    1
    15     8     9    1
    16     9    10    1
    17    10    11   am
    18    11    12    2
    19    11    15    1
    20    15    16   ar
    21    16    17   ar
    22    17    18   ar
    23    18    19   ar
    24    19    20   ar
    25    10    13    1
    26    13    14    1
    27     4     5   ar
    28     5     6   ar
    29     6    21    1
    30    21    22    2
    31    22    23    1
    32    23    24    1
    33    24    25    1
    34    25    26    1
    35    34    35   ar
    36    35    31   ar
    37     6     1   ar
    38    26    21    1
    39    14     7    1
    40    20    15   ar
    41    29    30    1
    42    35    36    1
@<TRIPOS>MOLECULE
*****
 38 42 0 0 0
SMALL
GASTEIGER

@<TRIPOS>ATOM
      1 C         141.3801  142.8849  163.6593 C.ar    1  UNL1        0.0502
      2 C         141.8059  144.2265  163.1410 C.ar    1  UNL1        0.0143
      3 C         141.4474  144.6391  161.7442 C.ar    1  UNL1       -0.0030
      4 C         140.6632  143.7100  160.8656 C.ar    1  UNL1       -0.0223
      5 C         140.2374  142.3684  161.3839 C.ar    1  UNL1       -0.0034
      6 C         140.5959  141.9558  162.7808 C.ar    1  UNL1        0.0089
      7 C         140.3048  144.1226  159.4687 C.3     1  UNL1        0.0257
      8 C         140.6681  145.4914  158.9744 C.3     1  UNL1        0.0259
      9 C         140.3097  145.9041  157.5775 C.3     1  UNL1        0.0940
     10 N         139.5879  144.9478  156.6749 N.am    1  UNL1       -0.2760
     11 C         139.2295  145.3604  155.2780 C.2     1  UNL1        0.2505
     12 O         138.5077  144.4042  154.3754 O.2     1  UNL1       -0.2699
     13 C         139.2246  143.5790  157.1692 C.3     1  UNL1        0.0940
     14 C         139.5830  143.1664  158.5661 C.3     1  UNL1        0.0259
     15 C         139.5928  146.7292  154.7838 C.ar    1  UNL1        0.0727
     16 C         138.8867  147.9353  155.3286 C.ar    1  UNL1        0.0077
     17 C         139.2500  149.3041  154.8343 C.ar    1  UNL1        0.0208
     18 C         140.3195  149.4669  153.7952 C.ar    1  UNL1        0.0989
     19 N         141.0256  148.2608  153.2504 N.ar    1  UNL1       -0.2422
     20 C         140.6623  146.8920  153.7446 C.ar    1  UNL1        0.1034
     21 C         140.1701  140.6141  163.2992 C.2     1  UNL1       -0.0253
     22 C         138.8986  140.4823  164.0839 C.2     1  UNL1       -0.0303
     23 C         138.4728  139.1407  164.6022 C.3     1  UNL1        0.0257
     24 C         139.3186  137.9308  164.3359 C.3     1  UNL1        0.0050
     25 C         140.5901  138.0626  163.5512 C.3     1  UNL1        0.0050
     26 C         141.0159  139.4043  163.0328 C.3     1  UNL1        0.0261
     27 C         140.8396  142.8375  166.2001 C.2     1  UNL1        0.2837
     28 O         139.5822  143.6154  165.9471 O.2     1  UNL1       -0.2665
     29 N         141.7385  142.4722  165.0563 N.am    1  UNL1       -0.2779
     30 H         142.5638  141.9617  165.2223 H       1  UNL1        0.1553
     31 C         142.1728  141.2342  169.4738 C.ar    1  UNL1        0.1469
     32 C         141.3261  142.3457  170.0194 C.ar    1  UNL1        0.1282
     33 N         140.7236  143.0816  168.8595 N.ar    1  UNL1       -0.2205
     34 C         141.1979  142.4249  167.5970 C.ar    1  UNL1        0.1958
     35 N         142.0936  141.2831  167.9767 N.ar    1  UNL1       -0.3257
     36 H         142.5494  140.6730  167.3529 H       1  UNL1        0.1682
     37 N         143.7481  139.2599  171.0927 N.1     1  UNL1       -0.1893
     38 C         142.9604  140.2470  170.2833 C.1     1  UNL1        0.1194
@<TRIPOS>BOND
     1    37    38    3
     2    38    31    1
     3    31    32   ar
     4    32    33   ar
     5    33    34   ar
     6    34    27    1
     7    27    28    2
     8    27    29   am
     9    29     1    1
    10     1     2   ar
    11     2     3   ar
    12     3     4   ar
    13     4     7    1
    14     7     8    1
    15     8     9    1
    16     9    10    1
    17    10    11   am
    18    11    12    2
    19    11    15    1
    20    15    16   ar
    21    16    17   ar
    22    17    18   ar
    23    18    19   ar
    24    19    20   ar
    25    10    13    1
    26    13    14    1
    27     4     5   ar
    28     5     6   ar
    29     6    21    1
    30    21    22    2
    31    22    23    1
    32    23    24    1
    33    24    25    1
    34    25    26    1
    35    34    35   ar
    36    35    31   ar
    37     6     1   ar
    38    26    21    1
    39    14     7    1
    40    20    15   ar
    41    29    30    1
    42    35    36    1
@<TRIPOS>MOLECULE
*****
 38 42 0 0 0
SMALL
GASTEIGER

@<TRIPOS>ATOM
      1 C         140.8063  144.5723  160.2233 C.ar    1  UNL1        0.0502
      2 C         139.9379  145.1850  161.2818 C.ar    1  UNL1        0.0143
      3 C         139.7167  144.4658  162.5794 C.ar    1  UNL1       -0.0030
      4 C         140.3640  143.1340  162.8186 C.ar    1  UNL1       -0.0223
      5 C         141.2325  142.5213  161.7601 C.ar    1  UNL1       -0.0034
      6 C         141.4536  143.2404  160.4625 C.ar    1  UNL1        0.0089
      7 C         140.1428  142.4148  164.1163 C.3     1  UNL1        0.0257
      8 C         140.9609  142.7733  165.3213 C.3     1  UNL1        0.0259
      9 C         140.7398  142.0541  166.6190 C.3     1  UNL1        0.0940
     10 N         139.7004  140.9765  166.7116 N.am    1  UNL1       -0.2760
     11 C         139.4792  140.2574  168.0092 C.2     1  UNL1        0.2505
     12 O         138.4399  139.1798  168.1018 O.2     1  UNL1       -0.2699
     13 C         138.8823  140.6181  165.5065 C.3     1  UNL1        0.0940
     14 C         139.1035  141.3372  164.2088 C.3     1  UNL1        0.0259
     15 C         140.2973  140.6158  169.2142 C.ar    1  UNL1        0.0727
     16 C         141.6377  139.9772  169.4278 C.ar    1  UNL1        0.0077
     17 C         142.4558  140.3357  170.6329 C.ar    1  UNL1        0.0208
     18 C         141.9336  141.3328  171.6244 C.ar    1  UNL1        0.0989
     19 N         140.5932  141.9715  171.4108 N.ar    1  UNL1       -0.2422
     20 C         139.7751  141.6130  170.2057 C.ar    1  UNL1        0.1034
     21 C         142.3221  142.6278  159.4039 C.2     1  UNL1       -0.0253
     22 C         143.7740  142.9950  159.3198 C.2     1  UNL1       -0.0303
     23 C         144.6425  142.3824  158.2613 C.3     1  UNL1        0.0257
     24 C         144.0590  141.4024  157.2869 C.3     1  UNL1        0.0050
     25 C         142.6071  141.0352  157.3710 C.3     1  UNL1        0.0050
     26 C         141.7386  141.6479  158.4296 C.3     1  UNL1        0.0261
     27 C         140.1763  144.9671  157.7339 C.2     1  UNL1        0.2837
     28 O         139.1039  143.9237  157.8399 O.2     1  UNL1       -0.2665
     29 N         141.0275  145.2915  158.9256 N.am    1  UNL1       -0.2779
     30 H         141.7314  145.9763  158.8561 H       1  UNL1        0.1553
     31 C         140.3371  147.3739  154.6931 C.ar    1  UNL1        0.1469
     32 C         141.1383  146.2117  154.1855 C.ar    1  UNL1        0.1282
     33 N         141.1756  145.1687  155.2629 N.ar    1  UNL1       -0.2205
     34 C         140.3974  145.6862  156.4362 C.ar    1  UNL1        0.1958
     35 N         139.8793  147.0491  156.0840 N.ar    1  UNL1       -0.3257
     36 H         139.3343  147.6287  156.6640 H       1  UNL1        0.1682
     37 N         139.7531  149.9037  153.1900 N.1     1  UNL1       -0.1893
     38 C         140.0451  148.6388  153.9415 C.1     1  UNL1        0.1194
@<TRIPOS>BOND
     1    37    38    3
     2    38    31    1
     3    31    32   ar
     4    32    33   ar
     5    33    34   ar
     6    34    27    1
     7    27    28    2
     8    27    29   am
     9    29     1    1
    10     1     2   ar
    11     2     3   ar
    12     3     4   ar
    13     4     7    1
    14     7     8    1
    15     8     9    1
    16     9    10    1
    17    10    11   am
    18    11    12    2
    19    11    15    1
    20    15    16   ar
    21    16    17   ar
    22    17    18   ar
    23    18    19   ar
    24    19    20   ar
    25    10    13    1
    26    13    14    1
    27     4     5   ar
    28     5     6   ar
    29     6    21    1
    30    21    22    2
    31    22    23    1
    32    23    24    1
    33    24    25    1
    34    25    26    1
    35    34    35   ar
    36    35    31   ar
    37     6     1   ar
    38    26    21    1
    39    14     7    1
    40    20    15   ar
    41    29    30    1
    42    35    36    1
