@<TRIPOS>MOLECULE
*****
 31 34 0 0 0
SMALL
GASTEIGER

@<TRIPOS>ATOM
      1 C         141.7508  140.3406  163.5375 C.2     1  UNL1        0.2525
      2 O         142.7245  140.1151  164.6560 O.2     1  UNL1       -0.2698
      3 N         141.9127  139.6022  162.2419 N.am    1  UNL1       -0.2660
      4 C         141.0227  139.7238  161.0406 C.3     1  UNL1        0.1236
      5 C         141.5531  138.8093  159.9764 C.ar    1  UNL1        0.0338
      6 C         141.3308  138.3193  158.5763 C.ar    1  UNL1        0.0991
      7 N         142.4111  137.3297  158.2545 N.ar    1  UNL1       -0.2265
      8 N         143.3012  137.2081  159.4558 N.ar    1  UNL1       -0.1679
      9 C         142.7708  138.1226  160.5200 C.ar    1  UNL1        0.0981
     10 C         142.9931  138.6127  161.9201 C.3     1  UNL1        0.1414
     11 C         142.5731  136.5913  156.9589 C.ar    1  UNL1        0.1102
     12 C         142.2210  137.2620  155.6643 C.ar    1  UNL1        0.0214
     13 C         142.3829  136.5237  154.3686 C.ar    1  UNL1        0.0017
     14 C         142.8969  135.1145  154.3677 C.ar    1  UNL1        0.0024
     15 C         143.2490  134.4437  155.6625 C.ar    1  UNL1        0.0312
     16 C         143.0871  135.1821  156.9580 C.ar    1  UNL1        0.1577
     17 F         143.4392  134.5113  158.2526 F       1  UNL1       -0.2026
     18 C         139.4296  140.9216  164.5497 C.ar    1  UNL1        0.1427
     19 C         138.2941  141.8855  164.7267 C.ar    1  UNL1        0.0384
     20 C         138.3441  143.2325  164.0686 C.ar    1  UNL1        0.0215
     21 C         139.5298  143.6155  163.2334 C.ar    1  UNL1        0.1061
     22 C         140.6653  142.6515  163.0564 C.ar    1  UNL1        0.0259
     23 C         140.6153  141.3045  163.7145 C.ar    1  UNL1        0.0887
     24 S         139.5798  144.9625  162.5752 S.O2    1  UNL1        0.0105
     25 C         139.6299  146.3094  161.9171 C.3     1  UNL1        0.1816
     26 O         138.0876  144.9437  162.4234 O.2     1  UNL1       -0.1686
     27 O         141.0720  144.9812  162.7271 O.2     1  UNL1       -0.1686
     28 O         139.3795  139.5746  165.2079 O.3     1  UNL1       -0.4790
     29 C         137.7106  138.6003  166.9444 C.3     1  UNL1        0.0472
     30 C         138.9051  139.4496  166.6254 C.3     1  UNL1        0.1661
     31 C         139.6253  140.1740  167.7238 C.3     1  UNL1        0.0472
@<TRIPOS>BOND
     1    29    30    1
     2    30    31    1
     3    30    28    1
     4    28    18    1
     5    18    19   ar
     6    19    20   ar
     7    20    21   ar
     8    21    24    1
     9    24    25    1
    10    24    26    2
    11    24    27    2
    12    21    22   ar
    13    22    23   ar
    14    23     1    1
    15     1     2    2
    16     1     3   am
    17     3     4    1
    18     4     5    1
    19     5     6   ar
    20     6     7   ar
    21     7    11    1
    22    11    12   ar
    23    12    13   ar
    24    13    14   ar
    25    14    15   ar
    26    15    16   ar
    27    16    17    1
    28     7     8   ar
    29     8     9   ar
    30     9    10    1
    31    23    18   ar
    32    10     3    1
    33     9     5   ar
    34    16    11   ar
@<TRIPOS>MOLECULE
*****
 31 34 0 0 0
SMALL
GASTEIGER

@<TRIPOS>ATOM
      1 C         144.4528  141.6980  163.8812 C.2     1  UNL1        0.2525
      2 O         145.9513  141.7631  163.8672 O.2     1  UNL1       -0.2698
      3 N         143.6672  142.2498  162.7287 N.am    1  UNL1       -0.2660
      4 C         142.1726  142.2556  162.6027 C.3     1  UNL1        0.1236
      5 C         141.8201  142.9022  161.2959 C.ar    1  UNL1        0.0338
      6 C         140.6785  143.3053  160.4104 C.ar    1  UNL1        0.0991
      7 N         141.2497  143.9484  159.1814 N.ar    1  UNL1       -0.2265
      8 N         142.7444  143.9426  159.3075 N.ar    1  UNL1       -0.1679
      9 C         143.0969  143.2960  160.6143 C.ar    1  UNL1        0.0981
     10 C         144.2385  142.8929  161.4998 C.3     1  UNL1        0.1414
     11 C         140.4642  144.5002  158.0290 C.ar    1  UNL1        0.1102
     12 C         140.5255  145.9652  157.7125 C.ar    1  UNL1        0.0214
     13 C         139.7400  146.5172  156.5600 C.ar    1  UNL1        0.0017
     14 C         138.8932  145.6041  155.7238 C.ar    1  UNL1        0.0024
     15 C         138.8318  144.1390  156.0402 C.ar    1  UNL1        0.0312
     16 C         139.6173  143.5872  157.1927 C.ar    1  UNL1        0.1577
     17 F         139.5560  142.1222  157.5092 F       1  UNL1       -0.2026
     18 C         143.4675  139.6059  165.0657 C.ar    1  UNL1        0.1427
     19 C         142.7545  138.9890  166.2323 C.ar    1  UNL1        0.0384
     20 C         142.3138  139.8469  167.3811 C.ar    1  UNL1        0.0215
     21 C         142.5862  141.3219  167.3633 C.ar    1  UNL1        0.1061
     22 C         143.2992  141.9389  166.1966 C.ar    1  UNL1        0.0259
     23 C         143.7398  141.0809  165.0478 C.ar    1  UNL1        0.0887
     24 S         142.1455  142.1799  168.5121 S.O2    1  UNL1        0.0105
     25 C         141.7049  143.0378  169.6609 C.3     1  UNL1        0.1816
     26 O         140.7355  141.7028  168.3275 O.2     1  UNL1       -0.1686
     27 O         143.5557  142.6569  168.6966 O.2     1  UNL1       -0.1686
     28 O         143.9081  138.7480  163.9169 O.3     1  UNL1       -0.4790
     29 C         141.6865  137.6977  163.0733 C.3     1  UNL1        0.0472
     30 C         142.9563  138.4470  162.7973 C.3     1  UNL1        0.1661
     31 C         143.2744  138.8954  161.4016 C.3     1  UNL1        0.0472
@<TRIPOS>BOND
     1    29    30    1
     2    30    31    1
     3    30    28    1
     4    28    18    1
     5    18    19   ar
     6    19    20   ar
     7    20    21   ar
     8    21    24    1
     9    24    25    1
    10    24    26    2
    11    24    27    2
    12    21    22   ar
    13    22    23   ar
    14    23     1    1
    15     1     2    2
    16     1     3   am
    17     3     4    1
    18     4     5    1
    19     5     6   ar
    20     6     7   ar
    21     7    11    1
    22    11    12   ar
    23    12    13   ar
    24    13    14   ar
    25    14    15   ar
    26    15    16   ar
    27    16    17    1
    28     7     8   ar
    29     8     9   ar
    30     9    10    1
    31    23    18   ar
    32    10     3    1
    33     9     5   ar
    34    16    11   ar
@<TRIPOS>MOLECULE
*****
 31 34 0 0 0
SMALL
GASTEIGER

@<TRIPOS>ATOM
      1 C         138.5432  141.2193  162.2781 C.2     1  UNL1        0.2525
      2 O         137.0885  141.5828  162.2380 O.2     1  UNL1       -0.2698
      3 N         139.1418  140.3981  161.1747 N.am    1  UNL1       -0.2660
      4 C         140.5730  139.9594  161.0790 C.3     1  UNL1        0.1236
      5 C         140.7299  139.1615  159.8185 C.ar    1  UNL1        0.0338
      6 C         141.7114  138.3973  158.9803 C.ar    1  UNL1        0.0991
      7 N         140.9838  137.8706  157.7789 N.ar    1  UNL1       -0.2265
      8 N         139.5525  138.3094  157.8747 N.ar    1  UNL1       -0.1679
      9 C         139.3956  139.1072  159.1352 C.ar    1  UNL1        0.0981
     10 C         138.4141  139.8714  159.9734 C.3     1  UNL1        0.1414
     11 C         141.5822  137.0494  156.6756 C.ar    1  UNL1        0.1102
     12 C         143.0697  136.8749  156.5927 C.ar    1  UNL1        0.0214
     13 C         143.6683  136.0537  155.4893 C.ar    1  UNL1        0.0017
     14 C         142.7793  135.4070  154.4689 C.ar    1  UNL1        0.0024
     15 C         141.2917  135.5815  154.5518 C.ar    1  UNL1        0.0312
     16 C         140.6932  136.4026  155.6551 C.ar    1  UNL1        0.1577
     17 F         139.2057  136.5771  155.7380 F       1  UNL1       -0.2026
     18 C         139.1505  141.1490  164.8033 C.ar    1  UNL1        0.1427
     19 C         140.0067  141.6067  165.9466 C.ar    1  UNL1        0.0384
     20 C         141.1119  142.5925  165.7083 C.ar    1  UNL1        0.0215
     21 C         141.3610  143.1205  164.3266 C.ar    1  UNL1        0.1061
     22 C         140.5047  142.6627  163.1832 C.ar    1  UNL1        0.0259
     23 C         139.3994  141.6770  163.4215 C.ar    1  UNL1        0.0887
     24 S         142.4662  144.1062  164.0883 S.O2    1  UNL1        0.0105
     25 C         143.5714  145.0919  163.8500 C.3     1  UNL1        0.1816
     26 O         143.3180  143.3951  165.0976 O.2     1  UNL1       -0.1686
     27 O         141.6143  144.8173  163.0789 O.2     1  UNL1       -0.1686
     28 O         138.0452  140.1633  165.0416 O.3     1  UNL1       -0.4790
     29 C         139.3031  137.8927  164.9312 C.3     1  UNL1        0.0472
     30 C         138.3535  138.8189  165.6313 C.3     1  UNL1        0.1661
     31 C         137.7120  138.4010  166.9212 C.3     1  UNL1        0.0472
@<TRIPOS>BOND
     1    29    30    1
     2    30    31    1
     3    30    28    1
     4    28    18    1
     5    18    19   ar
     6    19    20   ar
     7    20    21   ar
     8    21    24    1
     9    24    25    1
    10    24    26    2
    11    24    27    2
    12    21    22   ar
    13    22    23   ar
    14    23     1    1
    15     1     2    2
    16     1     3   am
    17     3     4    1
    18     4     5    1
    19     5     6   ar
    20     6     7   ar
    21     7    11    1
    22    11    12   ar
    23    12    13   ar
    24    13    14   ar
    25    14    15   ar
    26    15    16   ar
    27    16    17    1
    28     7     8   ar
    29     8     9   ar
    30     9    10    1
    31    23    18   ar
    32    10     3    1
    33     9     5   ar
    34    16    11   ar
@<TRIPOS>MOLECULE
*****
 31 34 0 0 0
SMALL
GASTEIGER

@<TRIPOS>ATOM
      1 C         139.6736  139.4330  165.1429 C.2     1  UNL1        0.2525
      2 O         138.7104  138.2833  165.1646 O.2     1  UNL1       -0.2698
      3 N         139.8209  140.2648  163.9034 N.am    1  UNL1       -0.2660
      4 C         140.7385  141.4392  163.7336 C.3     1  UNL1        0.1236
      5 C         140.5611  141.9684  162.3413 C.ar    1  UNL1        0.0338
      6 C         141.0186  143.0214  161.3759 C.ar    1  UNL1        0.0991
      7 N         140.2741  142.8248  160.0885 N.ar    1  UNL1       -0.2265
      8 N         139.3565  141.6504  160.2584 N.ar    1  UNL1       -0.1679
      9 C         139.5339  141.1212  161.6507 C.ar    1  UNL1        0.0981
     10 C         139.0764  140.0682  162.6161 C.3     1  UNL1        0.1414
     11 C         140.4214  143.6566  158.8491 C.ar    1  UNL1        0.1102
     12 C         140.7369  142.9996  157.5380 C.ar    1  UNL1        0.0214
     13 C         140.8842  143.8314  156.2985 C.ar    1  UNL1        0.0017
     14 C         140.7160  145.3202  156.3700 C.ar    1  UNL1        0.0024
     15 C         140.4005  145.9772  157.6811 C.ar    1  UNL1        0.0312
     16 C         140.2532  145.1455  158.9205 C.ar    1  UNL1        0.1577
     17 F         139.9377  145.8025  160.2316 F       1  UNL1       -0.2026
     18 C         141.8411  139.1260  166.5423 C.ar    1  UNL1        0.1427
     19 C         142.6569  139.4439  167.7602 C.ar    1  UNL1        0.0384
     20 C         142.1213  140.3867  168.7967 C.ar    1  UNL1        0.0215
     21 C         140.7697  141.0115  168.6153 C.ar    1  UNL1        0.1061
     22 C         139.9539  140.6936  167.3973 C.ar    1  UNL1        0.0259
     23 C         140.4895  139.7509  166.3608 C.ar    1  UNL1        0.0887
     24 S         140.2341  141.9542  169.6518 S.O2    1  UNL1        0.0105
     25 C         139.6984  142.8969  170.6883 C.3     1  UNL1        0.1816
     26 O         140.9902  143.0829  169.0160 O.2     1  UNL1       -0.1686
     27 O         139.4779  140.8254  170.2876 O.2     1  UNL1       -0.1686
     28 O         142.3767  138.1833  165.5058 O.3     1  UNL1       -0.4790
     29 C         144.3446  139.5985  164.5705 C.3     1  UNL1        0.0472
     30 C         143.1547  138.7151  164.3387 C.3     1  UNL1        0.1661
     31 C         142.7426  138.3635  162.9400 C.3     1  UNL1        0.0472
@<TRIPOS>BOND
     1    29    30    1
     2    30    31    1
     3    30    28    1
     4    28    18    1
     5    18    19   ar
     6    19    20   ar
     7    20    21   ar
     8    21    24    1
     9    24    25    1
    10    24    26    2
    11    24    27    2
    12    21    22   ar
    13    22    23   ar
    14    23     1    1
    15     1     2    2
    16     1     3   am
    17     3     4    1
    18     4     5    1
    19     5     6   ar
    20     6     7   ar
    21     7    11    1
    22    11    12   ar
    23    12    13   ar
    24    13    14   ar
    25    14    15   ar
    26    15    16   ar
    27    16    17    1
    28     7     8   ar
    29     8     9   ar
    30     9    10    1
    31    23    18   ar
    32    10     3    1
    33     9     5   ar
    34    16    11   ar
@<TRIPOS>MOLECULE
*****
 31 34 0 0 0
SMALL
GASTEIGER

@<TRIPOS>ATOM
      1 C         142.3745  140.4097  162.2077 C.2     1  UNL1        0.2525
      2 O         143.6681  140.3713  162.9661 O.2     1  UNL1       -0.2698
      3 N         142.2191  139.6091  160.9487 N.am    1  UNL1       -0.2660
      4 C         140.9920  139.5484  160.0883 C.3     1  UNL1        0.1236
      5 C         141.2781  138.6305  158.9370 C.ar    1  UNL1        0.0338
      6 C         140.6965  138.0257  157.6936 C.ar    1  UNL1        0.0991
      7 N         141.7411  137.1453  157.0740 N.ar    1  UNL1       -0.2265
      8 N         142.9683  137.2061  157.9345 N.ar    1  UNL1       -0.1679
      9 C         142.6821  138.1240  159.0858 C.ar    1  UNL1        0.0981
     10 C         143.2637  138.7288  160.3292 C.3     1  UNL1        0.1414
     11 C         141.5858  136.3448  155.8151 C.ar    1  UNL1        0.1102
     12 C         141.0002  136.9808  154.5893 C.ar    1  UNL1        0.0214
     13 C         140.8449  136.1803  153.3303 C.ar    1  UNL1        0.0017
     14 C         141.2751  134.7437  153.2971 C.ar    1  UNL1        0.0024
     15 C         141.8607  134.1076  154.5230 C.ar    1  UNL1        0.0312
     16 C         142.0160  134.9081  155.7819 C.ar    1  UNL1        0.1577
     17 F         142.6016  134.2721  157.0077 F       1  UNL1       -0.2026
     18 C         140.2601  140.6775  163.6936 C.ar    1  UNL1        0.1427
     19 C         139.1219  141.5165  164.1941 C.ar    1  UNL1        0.0384
     20 C         138.9598  142.9267  163.7094 C.ar    1  UNL1        0.0215
     21 C         139.9359  143.4979  162.7241 C.ar    1  UNL1        0.1061
     22 C         141.0742  142.6589  162.2235 C.ar    1  UNL1        0.0259
     23 C         141.2363  141.2486  162.7083 C.ar    1  UNL1        0.0887
     24 S         139.7739  144.9082  162.2393 S.O2    1  UNL1        0.0105
     25 C         139.6118  146.3184  161.7546 C.3     1  UNL1        0.1816
     26 O         141.2602  145.0218  162.0728 O.2     1  UNL1       -0.1686
     27 O         138.2874  144.7945  162.4059 O.2     1  UNL1       -0.1686
     28 O         140.4222  139.2672  164.1784 O.3     1  UNL1       -0.4790
     29 C         138.7555  137.5839  165.2454 C.3     1  UNL1        0.0472
     30 C         139.2924  138.2908  164.0363 C.3     1  UNL1        0.1661
     31 C         138.6996  138.0212  162.6850 C.3     1  UNL1        0.0472
@<TRIPOS>BOND
     1    29    30    1
     2    30    31    1
     3    30    28    1
     4    28    18    1
     5    18    19   ar
     6    19    20   ar
     7    20    21   ar
     8    21    24    1
     9    24    25    1
    10    24    26    2
    11    24    27    2
    12    21    22   ar
    13    22    23   ar
    14    23     1    1
    15     1     2    2
    16     1     3   am
    17     3     4    1
    18     4     5    1
    19     5     6   ar
    20     6     7   ar
    21     7    11    1
    22    11    12   ar
    23    12    13   ar
    24    13    14   ar
    25    14    15   ar
    26    15    16   ar
    27    16    17    1
    28     7     8   ar
    29     8     9   ar
    30     9    10    1
    31    23    18   ar
    32    10     3    1
    33     9     5   ar
    34    16    11   ar
@<TRIPOS>MOLECULE
*****
 31 34 0 0 0
SMALL
GASTEIGER

@<TRIPOS>ATOM
      1 C         138.9624  139.6113  165.6669 C.2     1  UNL1        0.2525
      2 O         137.6961  138.9972  166.1859 O.2     1  UNL1       -0.2698
      3 N         139.3853  139.3717  164.2478 N.am    1  UNL1       -0.2660
      4 C         140.6193  139.9165  163.5917 C.3     1  UNL1        0.1236
      5 C         140.6452  139.4268  162.1742 C.ar    1  UNL1        0.0338
      6 C         141.4238  139.4608  160.8925 C.ar    1  UNL1        0.0991
      7 N         140.6871  138.6344  159.8804 N.ar    1  UNL1       -0.2265
      8 N         139.4530  138.0896  160.5366 N.ar    1  UNL1       -0.1679
      9 C         139.4272  138.5793  161.9542 C.ar    1  UNL1        0.0981
     10 C         138.6486  138.5453  163.2358 C.3     1  UNL1        0.1414
     11 C         141.1100  138.3948  158.4615 C.ar    1  UNL1        0.1102
     12 C         142.4368  137.7580  158.1716 C.ar    1  UNL1        0.0214
     13 C         142.8598  137.5183  156.7526 C.ar    1  UNL1        0.0017
     14 C         141.9559  137.9156  155.6233 C.ar    1  UNL1        0.0024
     15 C         140.6290  138.5525  155.9131 C.ar    1  UNL1        0.0312
     16 C         140.2061  138.7921  157.3321 C.ar    1  UNL1        0.1577
     17 F         138.8793  139.4289  157.6220 F       1  UNL1       -0.2026
     18 C         139.8325  141.9531  166.3803 C.ar    1  UNL1        0.1427
     19 C         140.6759  142.8067  167.2804 C.ar    1  UNL1        0.0384
     20 C         141.4923  142.1723  168.3671 C.ar    1  UNL1        0.0215
     21 C         141.4655  140.6842  168.5537 C.ar    1  UNL1        0.1061
     22 C         140.6221  139.8306  167.6536 C.ar    1  UNL1        0.0259
     23 C         139.8056  140.4650  166.5669 C.ar    1  UNL1        0.0887
     24 S         142.2819  140.0498  169.6404 S.O2    1  UNL1        0.0105
     25 C         143.0984  139.4154  170.7271 C.3     1  UNL1        0.1816
     26 O         141.6332  140.9476  170.6519 O.2     1  UNL1       -0.1686
     27 O         142.9306  139.1520  168.6288 O.2     1  UNL1       -0.1686
     28 O         139.0161  142.5876  165.2936 O.3     1  UNL1       -0.4790
     29 C         140.1944  144.4931  163.9781 C.3     1  UNL1        0.0472
     30 C         139.1790  144.0470  164.9880 C.3     1  UNL1        0.1661
     31 C         138.3265  145.0604  165.6924 C.3     1  UNL1        0.0472
@<TRIPOS>BOND
     1    29    30    1
     2    30    31    1
     3    30    28    1
     4    28    18    1
     5    18    19   ar
     6    19    20   ar
     7    20    21   ar
     8    21    24    1
     9    24    25    1
    10    24    26    2
    11    24    27    2
    12    21    22   ar
    13    22    23   ar
    14    23     1    1
    15     1     2    2
    16     1     3   am
    17     3     4    1
    18     4     5    1
    19     5     6   ar
    20     6     7   ar
    21     7    11    1
    22    11    12   ar
    23    12    13   ar
    24    13    14   ar
    25    14    15   ar
    26    15    16   ar
    27    16    17    1
    28     7     8   ar
    29     8     9   ar
    30     9    10    1
    31    23    18   ar
    32    10     3    1
    33     9     5   ar
    34    16    11   ar
@<TRIPOS>MOLECULE
*****
 31 34 0 0 0
SMALL
GASTEIGER

@<TRIPOS>ATOM
      1 C         140.9757  138.8496  163.8189 C.2     1  UNL1        0.2525
      2 O         141.4268  137.4199  163.8669 O.2     1  UNL1       -0.2698
      3 N         140.2988  139.3817  162.5906 N.am    1  UNL1       -0.2660
      4 C         139.7957  140.7816  162.3976 C.3     1  UNL1        0.1236
      5 C         139.1921  140.8724  161.0274 C.ar    1  UNL1        0.0338
      6 C         138.5082  141.7936  160.0612 C.ar    1  UNL1        0.0991
      7 N         138.2155  141.0193  158.8103 N.ar    1  UNL1       -0.2265
      8 N         138.7187  139.6194  159.0034 N.ar    1  UNL1       -0.1679
      9 C         139.3222  139.5286  160.3736 C.ar    1  UNL1        0.0981
     10 C         140.0062  138.6074  161.3397 C.3     1  UNL1        0.1414
     11 C         137.5387  141.5514  157.5820 C.ar    1  UNL1        0.1102
     12 C         136.4320  140.7704  156.9377 C.ar    1  UNL1        0.0214
     13 C         135.7551  141.3024  155.7093 C.ar    1  UNL1        0.0017
     14 C         136.1849  142.6155  155.1254 C.ar    1  UNL1        0.0024
     15 C         137.2917  143.3966  155.7698 C.ar    1  UNL1        0.0312
     16 C         137.9685  142.8645  156.9980 C.ar    1  UNL1        0.1577
     17 F         139.0752  143.6455  157.6424 F       1  UNL1       -0.2026
     18 C         142.2893  140.7793  164.9596 C.ar    1  UNL1        0.1427
     19 C         142.5150  141.6769  166.1400 C.ar    1  UNL1        0.0384
     20 C         141.6529  141.5426  167.3601 C.ar    1  UNL1        0.0215
     21 C         140.5650  140.5106  167.3999 C.ar    1  UNL1        0.1061
     22 C         140.3393  139.6130  166.2194 C.ar    1  UNL1        0.0259
     23 C         141.2014  139.7473  164.9993 C.ar    1  UNL1        0.0887
     24 S         139.7029  140.3763  168.6200 S.O2    1  UNL1        0.0105
     25 C         138.8408  140.2420  169.8401 C.3     1  UNL1        0.1816
     26 O         138.8252  139.4014  167.8925 O.2     1  UNL1       -0.1686
     27 O         140.5806  141.3513  169.3474 O.2     1  UNL1       -0.1686
     28 O         143.1515  140.9136  163.7395 O.3     1  UNL1       -0.4790
     29 C         145.6215  141.6175  163.3478 C.3     1  UNL1        0.0472
     30 C         144.6178  140.6078  163.8198 C.3     1  UNL1        0.1661
     31 C         145.0802  139.2921  164.3722 C.3     1  UNL1        0.0472
@<TRIPOS>BOND
     1    29    30    1
     2    30    31    1
     3    30    28    1
     4    28    18    1
     5    18    19   ar
     6    19    20   ar
     7    20    21   ar
     8    21    24    1
     9    24    25    1
    10    24    26    2
    11    24    27    2
    12    21    22   ar
    13    22    23   ar
    14    23     1    1
    15     1     2    2
    16     1     3   am
    17     3     4    1
    18     4     5    1
    19     5     6   ar
    20     6     7   ar
    21     7    11    1
    22    11    12   ar
    23    12    13   ar
    24    13    14   ar
    25    14    15   ar
    26    15    16   ar
    27    16    17    1
    28     7     8   ar
    29     8     9   ar
    30     9    10    1
    31    23    18   ar
    32    10     3    1
    33     9     5   ar
    34    16    11   ar
@<TRIPOS>MOLECULE
*****
 31 34 0 0 0
SMALL
GASTEIGER

@<TRIPOS>ATOM
      1 C         143.8001  141.5905  164.1025 C.2     1  UNL1        0.2525
      2 O         145.0991  142.3384  164.1586 O.2     1  UNL1       -0.2698
      3 N         143.4489  140.7878  162.8850 N.am    1  UNL1       -0.2660
      4 C         142.1930  139.9922  162.6856 C.3     1  UNL1        0.1236
      5 C         142.2598  139.3525  161.3305 C.ar    1  UNL1        0.0338
      6 C         141.5250  138.4654  160.3698 C.ar    1  UNL1        0.0991
      7 N         142.3680  138.3173  159.1379 N.ar    1  UNL1       -0.2265
      8 N         143.6239  139.1129  159.3373 N.ar    1  UNL1       -0.1679
      9 C         143.5570  139.7527  160.6924 C.ar    1  UNL1        0.0981
     10 C         144.2919  140.6397  161.6531 C.3     1  UNL1        0.1414
     11 C         142.0168  137.5146  157.9204 C.ar    1  UNL1        0.1102
     12 C         142.9282  136.4171  157.4571 C.ar    1  UNL1        0.0214
     13 C         142.5770  135.6143  156.2395 C.ar    1  UNL1        0.0017
     14 C         141.3143  135.9092  155.4854 C.ar    1  UNL1        0.0024
     15 C         140.4029  137.0067  155.9488 C.ar    1  UNL1        0.0312
     16 C         140.7541  137.8094  157.1662 C.ar    1  UNL1        0.1577
     17 F         139.8426  138.9069  157.6296 F       1  UNL1       -0.2026
     18 C         141.7165  142.6250  165.2594 C.ar    1  UNL1        0.1427
     19 C         140.7688  142.6798  166.4208 C.ar    1  UNL1        0.0384
     20 C         140.9568  141.7548  167.5866 C.ar    1  UNL1        0.0215
     21 C         142.0927  140.7750  167.5910 C.ar    1  UNL1        0.1061
     22 C         143.0404  140.7203  166.4296 C.ar    1  UNL1        0.0259
     23 C         142.8524  141.6453  165.2638 C.ar    1  UNL1        0.0887
     24 S         142.2807  139.8501  168.7568 S.O2    1  UNL1        0.0105
     25 C         142.4688  138.9251  169.9226 C.3     1  UNL1        0.1816
     26 O         141.4334  140.7495  169.6071 O.2     1  UNL1       -0.1686
     27 O         143.1281  138.9507  167.9064 O.2     1  UNL1       -0.1686
     28 O         141.5284  143.5500  164.0936 O.3     1  UNL1       -0.4790
     29 C         139.4965  145.0153  163.4051 C.3     1  UNL1        0.0472
     30 C         140.1799  143.6808  163.4499 C.3     1  UNL1        0.1661
     31 C         139.5148  142.4771  162.8511 C.3     1  UNL1        0.0472
@<TRIPOS>BOND
     1    29    30    1
     2    30    31    1
     3    30    28    1
     4    28    18    1
     5    18    19   ar
     6    19    20   ar
     7    20    21   ar
     8    21    24    1
     9    24    25    1
    10    24    26    2
    11    24    27    2
    12    21    22   ar
    13    22    23   ar
    14    23     1    1
    15     1     2    2
    16     1     3   am
    17     3     4    1
    18     4     5    1
    19     5     6   ar
    20     6     7   ar
    21     7    11    1
    22    11    12   ar
    23    12    13   ar
    24    13    14   ar
    25    14    15   ar
    26    15    16   ar
    27    16    17    1
    28     7     8   ar
    29     8     9   ar
    30     9    10    1
    31    23    18   ar
    32    10     3    1
    33     9     5   ar
    34    16    11   ar
@<TRIPOS>MOLECULE
*****
 31 34 0 0 0
SMALL
GASTEIGER

@<TRIPOS>ATOM
      1 C         143.1340  139.6964  158.8561 C.2     1  UNL1        0.2525
      2 O         144.4030  139.9918  158.1130 O.2     1  UNL1       -0.2698
      3 N         143.0791  139.8695  160.3451 N.am    1  UNL1       -0.2660
      4 C         141.8870  139.6144  161.2190 C.3     1  UNL1        0.1236
      5 C         142.2778  139.9154  162.6355 C.ar    1  UNL1        0.0338
      6 C         141.7826  139.9438  164.0511 C.ar    1  UNL1        0.0991
      7 N         142.9102  140.4025  164.9276 N.ar    1  UNL1       -0.2265
      8 N         144.1023  140.6576  164.0536 N.ar    1  UNL1       -0.1679
      9 C         143.7115  140.3566  162.6371 C.ar    1  UNL1        0.0981
     10 C         144.2067  140.3282  161.2215 C.3     1  UNL1        0.1414
     11 C         142.8553  140.5757  166.4165 C.ar    1  UNL1        0.1102
     12 C         142.5602  139.3985  167.2981 C.ar    1  UNL1        0.0214
     13 C         142.5054  139.5716  168.7871 C.ar    1  UNL1        0.0017
     14 C         142.7456  140.9220  169.3945 C.ar    1  UNL1        0.0024
     15 C         143.0406  142.0992  168.5128 C.ar    1  UNL1        0.0312
     16 C         143.0955  141.9260  167.0239 C.ar    1  UNL1        0.1577
     17 F         143.3906  143.1032  166.1423 F       1  UNL1       -0.2026
     18 C         141.8713  137.8347  157.5560 C.ar    1  UNL1        0.1427
     19 C         140.6572  137.3662  156.8101 C.ar    1  UNL1        0.0384
     20 C         139.4915  138.2906  156.6186 C.ar    1  UNL1        0.0215
     21 C         139.5400  139.6836  157.1728 C.ar    1  UNL1        0.1061
     22 C         140.7542  140.1522  157.9187 C.ar    1  UNL1        0.0259
     23 C         141.9199  139.2278  158.1103 C.ar    1  UNL1        0.0887
     24 S         138.3743  140.6080  156.9812 S.O2    1  UNL1        0.0105
     25 C         137.2087  141.5324  156.7896 C.3     1  UNL1        0.1816
     26 O         137.7276  140.0479  158.2133 O.2     1  UNL1       -0.1686
     27 O         139.0211  141.1681  155.7491 O.2     1  UNL1       -0.1686
     28 O         143.0370  136.9103  157.7475 O.3     1  UNL1       -0.4790
     29 C         143.0131  134.4677  156.8627 C.3     1  UNL1        0.0472
     30 C         143.3837  135.9103  156.6847 C.3     1  UNL1        0.1661
     31 C         144.1011  136.3528  155.4439 C.3     1  UNL1        0.0472
@<TRIPOS>BOND
     1    29    30    1
     2    30    31    1
     3    30    28    1
     4    28    18    1
     5    18    19   ar
     6    19    20   ar
     7    20    21   ar
     8    21    24    1
     9    24    25    1
    10    24    26    2
    11    24    27    2
    12    21    22   ar
    13    22    23   ar
    14    23     1    1
    15     1     2    2
    16     1     3   am
    17     3     4    1
    18     4     5    1
    19     5     6   ar
    20     6     7   ar
    21     7    11    1
    22    11    12   ar
    23    12    13   ar
    24    13    14   ar
    25    14    15   ar
    26    15    16   ar
    27    16    17    1
    28     7     8   ar
    29     8     9   ar
    30     9    10    1
    31    23    18   ar
    32    10     3    1
    33     9     5   ar
    34    16    11   ar
