@<TRIPOS>MOLECULE
*****
 34 37 0 0 0
SMALL
GASTEIGER

@<TRIPOS>ATOM
      1 C         142.1330  140.0636  165.1445 C.3     1  UNL1        0.1518
      2 N         143.4546  140.4770  164.5678 N.2     1  UNL1       -0.2172
      3 C         144.0416  140.1297  163.2318 C.2     1  UNL1        0.2843
      4 N         143.4522  139.2833  162.1426 N.pl3   1  UNL1       -0.2584
      5 C         144.2965  139.1241  160.9131 C.3     1  UNL1        0.1169
      6 C         142.1301  138.5751  162.1205 C.3     1  UNL1        0.1216
      7 C         141.0709  138.5384  163.1820 C.ar    1  UNL1       -0.0041
      8 C         139.8961  137.7090  162.7554 C.ar    1  UNL1       -0.0029
      9 C         138.7226  137.5421  163.6747 C.ar    1  UNL1       -0.0003
     10 C         138.7239  138.2045  165.0205 C.ar    1  UNL1       -0.0003
     11 C         139.8987  139.0339  165.4470 C.ar    1  UNL1       -0.0023
     12 C         141.0722  139.2008  164.5278 C.ar    1  UNL1        0.0018
     13 C         141.2317  141.6170  169.2706 C.ar    1  UNL1        0.0252
     14 C         141.9374  140.3044  169.1010 C.ar    1  UNL1        0.0059
     15 C         142.2379  139.7865  167.7257 C.ar    1  UNL1       -0.0016
     16 C         141.8326  140.5814  166.5198 C.ar    1  UNL1        0.0041
     17 C         141.1268  141.8941  166.6894 C.ar    1  UNL1       -0.0016
     18 C         140.8264  142.4120  168.0648 C.ar    1  UNL1        0.0059
     19 C         139.7282  143.0013  170.8747 C.3     1  UNL1        0.0742
     20 S         140.9312  142.1349  170.6459 S.3     1  UNL1       -0.1127
     21 O         145.3974  140.7050  162.9473 O.2     1  UNL1       -0.4449
     22 C         145.5326  142.1442  162.5470 C.3     1  UNL1        0.2350
     23 C         144.3476  143.0601  162.6295 C.ar    1  UNL1        0.0213
     24 C         144.1335  143.9012  163.8530 C.ar    1  UNL1        0.0006
     25 C         142.9484  144.8171  163.9356 C.ar    1  UNL1        0.0156
     26 C         141.9775  144.8919  162.7946 C.ar    1  UNL1        0.0644
     27 C         142.1916  144.0509  161.5712 C.ar    1  UNL1        0.0156
     28 C         143.3767  143.1350  161.4886 C.ar    1  UNL1        0.0006
     29 N         140.7925  145.8078  162.8771 N.pl3   1  UNL1       -0.2187
     30 H         140.9255  146.7824  162.9196 H       1  UNL1        0.1734
     31 S         139.4046  145.2389  162.8949 S.O2    1  UNL1        0.0558
     32 C         138.0168  144.6700  162.9126 C.3     1  UNL1        0.1996
     33 O         139.6516  144.6791  164.2644 O.2     1  UNL1       -0.1544
     34 O         139.1576  145.7986  161.5254 O.2     1  UNL1       -0.1544
@<TRIPOS>BOND
     1    19    20    1
     2    20    13    1
     3    13    14   ar
     4    14    15   ar
     5    15    16   ar
     6     1    16    1
     7     1     2    1
     8     2     3    2
     9     3    21    1
    10    21    22    1
    11    22    23    1
    12    23    24   ar
    13    24    25   ar
    14    25    26   ar
    15    26    29    1
    16    29    31    1
    17    31    32    1
    18    31    33    2
    19    31    34    2
    20    26    27   ar
    21    27    28   ar
    22     3     4    1
    23     4     5    1
    24     4     6    1
    25     6     7    1
    26     7     8   ar
    27     8     9   ar
    28     9    10   ar
    29    10    11   ar
    30    11    12   ar
    31    16    17   ar
    32    17    18   ar
    33    18    13   ar
    34    12     1    1
    35    28    23   ar
    36    12     7   ar
    37    29    30    1
@<TRIPOS>MOLECULE
*****
 34 37 0 0 0
SMALL
GASTEIGER

@<TRIPOS>ATOM
      1 C         142.0678  142.8404  165.1763 C.3     1  UNL1        0.1518
      2 N         140.8054  143.6355  165.0213 N.2     1  UNL1       -0.2172
      3 C         140.3848  144.5087  163.8764 C.2     1  UNL1        0.2843
      4 N         141.1226  144.8023  162.6038 N.pl3   1  UNL1       -0.2584
      5 C         140.4279  145.7249  161.6467 C.3     1  UNL1        0.1169
      6 C         142.4634  144.2952  162.1619 C.3     1  UNL1        0.1216
      7 C         143.3974  143.3694  162.8833 C.ar    1  UNL1       -0.0041
      8 C         144.6416  143.1148  162.0851 C.ar    1  UNL1       -0.0029
      9 C         145.7097  142.2127  162.6285 C.ar    1  UNL1       -0.0003
     10 C         145.5336  141.5652  163.9700 C.ar    1  UNL1       -0.0003
     11 C         144.2895  141.8198  164.7682 C.ar    1  UNL1       -0.0023
     12 C         143.2214  142.7219  164.2248 C.ar    1  UNL1        0.0018
     13 C         142.4441  140.5008  169.0018 C.ar    1  UNL1        0.0252
     14 C         143.1482  141.8170  168.8554 C.ar    1  UNL1        0.0059
     15 C         143.0229  142.5969  167.5802 C.ar    1  UNL1       -0.0016
     16 C         142.1932  142.0605  166.4515 C.ar    1  UNL1        0.0041
     17 C         141.4890  140.7442  166.5980 C.ar    1  UNL1       -0.0016
     18 C         141.6145  139.9643  167.8732 C.ar    1  UNL1        0.0059
     19 C         142.8691  138.2518  170.2311 C.3     1  UNL1        0.0742
     20 S         142.5695  139.7209  170.2770 S.3     1  UNL1       -0.1127
     21 O         139.0497  145.1765  164.0235 O.2     1  UNL1       -0.4449
     22 C         137.7903  144.3906  163.8091 C.3     1  UNL1        0.2350
     23 C         137.8644  142.9246  163.5004 C.ar    1  UNL1        0.0213
     24 C         137.9505  141.9264  164.6169 C.ar    1  UNL1        0.0006
     25 C         138.0246  140.4604  164.3082 C.ar    1  UNL1        0.0156
     26 C         138.0127  139.9925  162.8830 C.ar    1  UNL1        0.0644
     27 C         137.9266  140.9907  161.7666 C.ar    1  UNL1        0.0156
     28 C         137.8525  142.4567  162.0753 C.ar    1  UNL1        0.0006
     29 N         138.0868  138.5265  162.5743 N.pl3   1  UNL1       -0.2187
     30 H         137.3015  138.0606  162.2063 H       1  UNL1        0.1734
     31 S         139.3576  137.7703  162.8263 S.O2    1  UNL1        0.0558
     32 C         140.6283  137.0142  163.0782 C.3     1  UNL1        0.1996
     33 O         138.8796  137.4269  164.2060 O.2     1  UNL1       -0.1544
     34 O         139.8355  138.1138  161.4466 O.2     1  UNL1       -0.1544
@<TRIPOS>BOND
     1    19    20    1
     2    20    13    1
     3    13    14   ar
     4    14    15   ar
     5    15    16   ar
     6     1    16    1
     7     1     2    1
     8     2     3    2
     9     3    21    1
    10    21    22    1
    11    22    23    1
    12    23    24   ar
    13    24    25   ar
    14    25    26   ar
    15    26    29    1
    16    29    31    1
    17    31    32    1
    18    31    33    2
    19    31    34    2
    20    26    27   ar
    21    27    28   ar
    22     3     4    1
    23     4     5    1
    24     4     6    1
    25     6     7    1
    26     7     8   ar
    27     8     9   ar
    28     9    10   ar
    29    10    11   ar
    30    11    12   ar
    31    16    17   ar
    32    17    18   ar
    33    18    13   ar
    34    12     1    1
    35    28    23   ar
    36    12     7   ar
    37    29    30    1
@<TRIPOS>MOLECULE
*****
 34 37 0 0 0
SMALL
GASTEIGER

@<TRIPOS>ATOM
      1 C         139.8310  140.9633  165.4490 C.3     1  UNL1        0.1518
      2 N         139.9191  139.5031  165.1171 N.2     1  UNL1       -0.2172
      3 C         139.2503  138.7556  164.0017 C.2     1  UNL1        0.2843
      4 N         138.3283  139.2836  162.9429 N.pl3   1  UNL1       -0.2584
      5 C         137.8201  138.2719  161.9590 C.3     1  UNL1        0.1169
      6 C         137.8474  140.6895  162.7379 C.3     1  UNL1        0.1216
      7 C         138.1697  141.9147  163.5410 C.ar    1  UNL1       -0.0041
      8 C         137.4755  143.1267  162.9941 C.ar    1  UNL1       -0.0029
      9 C         137.6642  144.4606  163.6538 C.ar    1  UNL1       -0.0003
     10 C         138.5470  144.5824  164.8603 C.ar    1  UNL1       -0.0003
     11 C         139.2412  143.3704  165.4073 C.ar    1  UNL1       -0.0023
     12 C         139.0525  142.0366  164.7476 C.ar    1  UNL1        0.0018
     13 C         142.2183  142.3009  169.0214 C.ar    1  UNL1        0.0252
     14 C         140.7724  141.9346  169.1800 C.ar    1  UNL1        0.0059
     15 C         139.9766  141.4887  167.9893 C.ar    1  UNL1       -0.0016
     16 C         140.6268  141.4091  166.6398 C.ar    1  UNL1        0.0041
     17 C         142.0727  141.7755  166.4811 C.ar    1  UNL1       -0.0016
     18 C         142.8685  142.2214  167.6719 C.ar    1  UNL1        0.0059
     19 C         144.5131  142.7324  170.1603 C.3     1  UNL1        0.0742
     20 S         143.0141  142.7468  170.2121 S.3     1  UNL1       -0.1127
     21 O         139.5422  137.2857  163.9367 O.2     1  UNL1       -0.4449
     22 C         140.9470  136.8091  163.7148 C.3     1  UNL1        0.2350
     23 C         142.0523  137.8021  163.5097 C.ar    1  UNL1        0.0213
     24 C         142.4029  138.2587  162.1245 C.ar    1  UNL1        0.0006
     25 C         143.5083  139.2517  161.9194 C.ar    1  UNL1        0.0156
     26 C         144.2630  139.7882  163.0996 C.ar    1  UNL1        0.0644
     27 C         143.9125  139.3316  164.4847 C.ar    1  UNL1        0.0156
     28 C         142.8071  138.3385  164.6897 C.ar    1  UNL1        0.0006
     29 N         145.3684  140.7812  162.8945 N.pl3   1  UNL1       -0.2187
     30 H         146.3036  140.4759  162.8559 H       1  UNL1        0.1734
     31 S         145.0489  142.2395  162.7482 S.O2    1  UNL1        0.0558
     32 C         144.7294  143.6978  162.6021 C.3     1  UNL1        0.1996
     33 O         144.9358  142.0658  161.2627 O.2     1  UNL1       -0.1544
     34 O         145.1620  142.4132  164.2338 O.2     1  UNL1       -0.1544
@<TRIPOS>BOND
     1    19    20    1
     2    20    13    1
     3    13    14   ar
     4    14    15   ar
     5    15    16   ar
     6     1    16    1
     7     1     2    1
     8     2     3    2
     9     3    21    1
    10    21    22    1
    11    22    23    1
    12    23    24   ar
    13    24    25   ar
    14    25    26   ar
    15    26    29    1
    16    29    31    1
    17    31    32    1
    18    31    33    2
    19    31    34    2
    20    26    27   ar
    21    27    28   ar
    22     3     4    1
    23     4     5    1
    24     4     6    1
    25     6     7    1
    26     7     8   ar
    27     8     9   ar
    28     9    10   ar
    29    10    11   ar
    30    11    12   ar
    31    16    17   ar
    32    17    18   ar
    33    18    13   ar
    34    12     1    1
    35    28    23   ar
    36    12     7   ar
    37    29    30    1
@<TRIPOS>MOLECULE
*****
 34 37 0 0 0
SMALL
GASTEIGER

@<TRIPOS>ATOM
      1 C         142.0018  139.7063  164.6199 C.3     1  UNL1        0.1518
      2 N         140.8818  138.9112  164.0171 N.2     1  UNL1       -0.2172
      3 C         140.6730  138.5293  162.5816 C.2     1  UNL1        0.2843
      4 N         141.5327  138.8480  161.3944 N.pl3   1  UNL1       -0.2584
      5 C         141.0475  138.3171  160.0782 C.3     1  UNL1        0.1169
      6 C         142.8135  139.6275  161.3496 C.3     1  UNL1        0.1216
      7 C         143.5509  140.2807  162.4808 C.ar    1  UNL1       -0.0041
      8 C         144.7979  140.9625  162.0009 C.ar    1  UNL1       -0.0029
      9 C         145.6835  141.6794  162.9764 C.ar    1  UNL1       -0.0003
     10 C         145.3223  141.7144  164.4318 C.ar    1  UNL1       -0.0003
     11 C         144.0754  141.0326  164.9117 C.ar    1  UNL1       -0.0023
     12 C         143.1897  140.3158  163.9362 C.ar    1  UNL1        0.0018
     13 C         141.7672  140.3479  169.0678 C.ar    1  UNL1        0.0252
     14 C         140.9438  141.1949  168.1434 C.ar    1  UNL1        0.0059
     15 C         141.0219  140.9810  166.6608 C.ar    1  UNL1       -0.0016
     16 C         141.9236  139.9202  166.1025 C.ar    1  UNL1        0.0041
     17 C         142.7471  139.0732  167.0269 C.ar    1  UNL1       -0.0016
     18 C         142.6690  139.2871  168.5096 C.ar    1  UNL1        0.0059
     19 C         141.7637  141.9504  171.1127 C.3     1  UNL1        0.0742
     20 S         141.6891  140.5618  170.5504 S.3     1  UNL1       -0.1127
     21 O         139.4417  137.7217  162.2955 O.2     1  UNL1       -0.4449
     22 C         138.1216  138.4084  162.1069 C.3     1  UNL1        0.2350
     23 C         138.0406  139.9053  162.1582 C.ar    1  UNL1        0.0213
     24 C         138.2986  140.7132  160.9209 C.ar    1  UNL1        0.0006
     25 C         138.2177  142.2101  160.9721 C.ar    1  UNL1        0.0156
     26 C         137.8788  142.8992  162.2607 C.ar    1  UNL1        0.0644
     27 C         137.6208  142.0913  163.4979 C.ar    1  UNL1        0.0156
     28 C         137.7018  140.5944  163.4467 C.ar    1  UNL1        0.0006
     29 N         137.7979  144.3961  162.3120 N.pl3   1  UNL1       -0.2187
     30 H         136.9272  144.8456  162.2166 H       1  UNL1        0.1734
     31 S         139.0437  145.2083  162.5086 S.O2    1  UNL1        0.0558
     32 C         140.2894  146.0204  162.7052 C.3     1  UNL1        0.1996
     33 O         139.2212  145.2959  161.0217 O.2     1  UNL1       -0.1544
     34 O         138.8661  145.1206  163.9954 O.2     1  UNL1       -0.1544
@<TRIPOS>BOND
     1    19    20    1
     2    20    13    1
     3    13    14   ar
     4    14    15   ar
     5    15    16   ar
     6     1    16    1
     7     1     2    1
     8     2     3    2
     9     3    21    1
    10    21    22    1
    11    22    23    1
    12    23    24   ar
    13    24    25   ar
    14    25    26   ar
    15    26    29    1
    16    29    31    1
    17    31    32    1
    18    31    33    2
    19    31    34    2
    20    26    27   ar
    21    27    28   ar
    22     3     4    1
    23     4     5    1
    24     4     6    1
    25     6     7    1
    26     7     8   ar
    27     8     9   ar
    28     9    10   ar
    29    10    11   ar
    30    11    12   ar
    31    16    17   ar
    32    17    18   ar
    33    18    13   ar
    34    12     1    1
    35    28    23   ar
    36    12     7   ar
    37    29    30    1
@<TRIPOS>MOLECULE
*****
 34 37 0 0 0
SMALL
GASTEIGER

@<TRIPOS>ATOM
      1 C         139.3129  140.9358  161.8410 C.3     1  UNL1        0.1518
      2 N         139.1069  142.4063  161.6287 N.2     1  UNL1       -0.2172
      3 C         138.5873  143.4272  162.5970 C.2     1  UNL1        0.2843
      4 N         138.1453  143.2298  164.0168 N.pl3   1  UNL1       -0.2584
      5 C         137.6723  144.4625  164.7286 C.3     1  UNL1        0.1169
      6 C         138.1138  141.9627  164.8188 C.3     1  UNL1        0.1216
      7 C         138.5165  140.5799  164.3993 C.ar    1  UNL1       -0.0041
      8 C         138.3272  139.5925  165.5124 C.ar    1  UNL1       -0.0029
      9 C         138.6715  138.1481  165.3003 C.ar    1  UNL1       -0.0003
     10 C         139.2052  137.6911  163.9750 C.ar    1  UNL1       -0.0003
     11 C         139.3945  138.6785  162.8619 C.ar    1  UNL1       -0.0023
     12 C         139.0502  140.1229  163.0740 C.ar    1  UNL1        0.0018
     13 C         140.9335  138.6618  158.3122 C.ar    1  UNL1        0.0252
     14 C         141.8745  139.2562  159.3176 C.ar    1  UNL1        0.0059
     15 C         141.3344  140.0142  160.4939 C.ar    1  UNL1       -0.0016
     16 C         139.8531  140.1778  160.6647 C.ar    1  UNL1        0.0041
     17 C         138.9120  139.5833  159.6592 C.ar    1  UNL1       -0.0016
     18 C         139.4522  138.8253  158.4829 C.ar    1  UNL1        0.0059
     19 C         142.7451  137.1192  157.2690 C.3     1  UNL1        0.0742
     20 S         141.4736  137.9038  157.1358 S.3     1  UNL1       -0.1127
     21 O         138.4978  144.8313  162.0768 O.2     1  UNL1       -0.4449
     22 C         139.7448  145.6450  161.8958 C.3     1  UNL1        0.2350
     23 C         141.0902  145.0026  162.0616 C.ar    1  UNL1        0.0213
     24 C         141.6836  144.2043  160.9388 C.ar    1  UNL1        0.0006
     25 C         143.0289  143.5620  161.1046 C.ar    1  UNL1        0.0156
     26 C         143.7808  143.7180  162.3932 C.ar    1  UNL1        0.0644
     27 C         143.1873  144.5162  163.5159 C.ar    1  UNL1        0.0156
     28 C         141.8420  145.1585  163.3501 C.ar    1  UNL1        0.0006
     29 N         145.1261  143.0756  162.5590 N.pl3   1  UNL1       -0.2187
     30 H         145.9293  143.5147  162.1966 H       1  UNL1        0.1734
     31 S         145.2477  141.7642  163.2771 S.O2    1  UNL1        0.0558
     32 C         145.3693  140.4529  163.9951 C.3     1  UNL1        0.1996
     33 O         145.0844  141.0365  161.9757 O.2     1  UNL1       -0.1544
     34 O         145.4110  142.4920  164.5785 O.2     1  UNL1       -0.1544
@<TRIPOS>BOND
     1    19    20    1
     2    20    13    1
     3    13    14   ar
     4    14    15   ar
     5    15    16   ar
     6     1    16    1
     7     1     2    1
     8     2     3    2
     9     3    21    1
    10    21    22    1
    11    22    23    1
    12    23    24   ar
    13    24    25   ar
    14    25    26   ar
    15    26    29    1
    16    29    31    1
    17    31    32    1
    18    31    33    2
    19    31    34    2
    20    26    27   ar
    21    27    28   ar
    22     3     4    1
    23     4     5    1
    24     4     6    1
    25     6     7    1
    26     7     8   ar
    27     8     9   ar
    28     9    10   ar
    29    10    11   ar
    30    11    12   ar
    31    16    17   ar
    32    17    18   ar
    33    18    13   ar
    34    12     1    1
    35    28    23   ar
    36    12     7   ar
    37    29    30    1
@<TRIPOS>MOLECULE
*****
 34 37 0 0 0
SMALL
GASTEIGER

@<TRIPOS>ATOM
      1 C         141.5021  142.8106  165.5356 C.3     1  UNL1        0.1518
      2 N         142.9706  142.5731  165.3431 N.2     1  UNL1       -0.2172
      3 C         143.8591  143.0579  164.2360 C.2     1  UNL1        0.2843
      4 N         143.4985  143.8998  163.0481 N.pl3   1  UNL1       -0.2584
      5 C         144.6250  144.2188  162.1105 C.3     1  UNL1        0.1169
      6 C         142.1604  144.4649  162.6739 C.3     1  UNL1        0.1216
      7 C         140.8523  144.3277  163.3951 C.ar    1  UNL1       -0.0041
      8 C         139.7522  145.0523  162.6777 C.ar    1  UNL1       -0.0029
      9 C         138.3592  145.0406  163.2338 C.ar    1  UNL1       -0.0003
     10 C         138.0663  144.3043  164.5074 C.ar    1  UNL1       -0.0003
     11 C         139.1663  143.5798  165.2249 C.ar    1  UNL1       -0.0023
     12 C         140.5593  143.5914  164.6688 C.ar    1  UNL1        0.0018
     13 C         139.6843  140.9319  169.1985 C.ar    1  UNL1        0.0252
     14 C         139.7781  140.1494  167.9223 C.ar    1  UNL1        0.0059
     15 C         140.3840  140.7755  166.7014 C.ar    1  UNL1       -0.0016
     16 C         140.8961  142.1843  166.7566 C.ar    1  UNL1        0.0041
     17 C         140.8023  142.9669  168.0329 C.ar    1  UNL1       -0.0016
     18 C         140.1964  142.3407  169.2538 C.ar    1  UNL1        0.0059
     19 C         139.9305  139.4880  171.3443 C.3     1  UNL1        0.0742
     20 S         139.0783  140.3058  170.4195 S.3     1  UNL1       -0.1127
     21 O         145.2985  142.6462  164.3292 O.2     1  UNL1       -0.4449
     22 C         145.6909  141.2240  164.0585 C.3     1  UNL1        0.2350
     23 C         144.6347  140.1912  163.7978 C.ar    1  UNL1        0.0213
     24 C         144.2003  139.9012  162.3916 C.ar    1  UNL1        0.0006
     25 C         143.1442  138.8684  162.1309 C.ar    1  UNL1        0.0156
     26 C         142.5225  138.1257  163.2763 C.ar    1  UNL1        0.0644
     27 C         142.9570  138.4157  164.6824 C.ar    1  UNL1        0.0156
     28 C         144.0131  139.4485  164.9431 C.ar    1  UNL1        0.0006
     29 N         141.4664  137.0929  163.0156 N.pl3   1  UNL1       -0.2187
     30 H         141.7190  136.1480  162.9031 H       1  UNL1        0.1734
     31 S         140.0254  137.4997  162.9263 S.O2    1  UNL1        0.0558
     32 C         138.5844  137.9066  162.8369 C.3     1  UNL1        0.1996
     33 O         139.8902  137.3476  164.4124 O.2     1  UNL1       -0.1544
     34 O         140.1605  137.6519  161.4402 O.2     1  UNL1       -0.1544
@<TRIPOS>BOND
     1    19    20    1
     2    20    13    1
     3    13    14   ar
     4    14    15   ar
     5    15    16   ar
     6     1    16    1
     7     1     2    1
     8     2     3    2
     9     3    21    1
    10    21    22    1
    11    22    23    1
    12    23    24   ar
    13    24    25   ar
    14    25    26   ar
    15    26    29    1
    16    29    31    1
    17    31    32    1
    18    31    33    2
    19    31    34    2
    20    26    27   ar
    21    27    28   ar
    22     3     4    1
    23     4     5    1
    24     4     6    1
    25     6     7    1
    26     7     8   ar
    27     8     9   ar
    28     9    10   ar
    29    10    11   ar
    30    11    12   ar
    31    16    17   ar
    32    17    18   ar
    33    18    13   ar
    34    12     1    1
    35    28    23   ar
    36    12     7   ar
    37    29    30    1
@<TRIPOS>MOLECULE
*****
 34 37 0 0 0
SMALL
GASTEIGER

@<TRIPOS>ATOM
      1 C         141.3363  143.8678  161.8219 C.3     1  UNL1        0.1518
      2 N         142.8063  143.6135  161.9783 N.2     1  UNL1       -0.2172
      3 C         143.5921  143.4160  163.2407 C.2     1  UNL1        0.2843
      4 N         143.1020  143.4240  164.6584 N.pl3   1  UNL1       -0.2584
      5 C         144.1470  143.1941  165.7096 C.3     1  UNL1        0.1169
      6 C         141.7050  143.6316  165.1638 C.3     1  UNL1        0.1216
      7 C         140.4531  143.8823  164.3764 C.ar    1  UNL1       -0.0041
      8 C         139.2619  144.0349  165.2750 C.ar    1  UNL1       -0.0029
      9 C         137.9065  144.2926  164.6864 C.ar    1  UNL1       -0.0003
     10 C         137.7424  144.3977  163.1991 C.ar    1  UNL1       -0.0003
     11 C         138.9337  144.2451  162.3005 C.ar    1  UNL1       -0.0023
     12 C         140.2890  143.9874  162.8891 C.ar    1  UNL1        0.0018
     13 C         139.8748  144.3334  157.5914 C.ar    1  UNL1        0.0252
     14 C         140.3180  145.5373  158.3685 C.ar    1  UNL1        0.0059
     15 C         140.8051  145.3822  159.7787 C.ar    1  UNL1       -0.0016
     16 C         140.8492  144.0230  160.4118 C.ar    1  UNL1        0.0041
     17 C         140.4060  142.8190  159.6345 C.ar    1  UNL1       -0.0016
     18 C         139.9188  142.9742  158.2244 C.ar    1  UNL1        0.0059
     19 C         139.0948  145.8545  155.6350 C.3     1  UNL1        0.0742
     20 S         139.3877  144.4885  156.1812 S.3     1  UNL1       -0.1127
     21 O         145.0624  143.1791  163.0618 O.2     1  UNL1       -0.4449
     22 C         145.5768  141.7870  162.8443 C.3     1  UNL1        0.2350
     23 C         144.6255  140.6272  162.8450 C.ar    1  UNL1        0.0213
     24 C         143.9985  140.1707  161.5610 C.ar    1  UNL1        0.0006
     25 C         143.0472  139.0110  161.5617 C.ar    1  UNL1        0.0156
     26 C         142.7229  138.3078  162.8464 C.ar    1  UNL1        0.0644
     27 C         143.3498  138.7643  164.1303 C.ar    1  UNL1        0.0156
     28 C         144.3011  139.9240  164.1296 C.ar    1  UNL1        0.0006
     29 N         141.7716  137.1480  162.8471 N.pl3   1  UNL1       -0.2187
     30 H         142.0990  136.2426  162.6414 H       1  UNL1        0.1734
     31 S         140.3213  137.3678  163.1612 S.O2    1  UNL1        0.0558
     32 C         138.8711  137.5875  163.4753 C.3     1  UNL1        0.1996
     33 O         140.5978  137.1163  164.6139 O.2     1  UNL1       -0.1544
     34 O         140.0448  137.6193  161.7086 O.2     1  UNL1       -0.1544
@<TRIPOS>BOND
     1    19    20    1
     2    20    13    1
     3    13    14   ar
     4    14    15   ar
     5    15    16   ar
     6     1    16    1
     7     1     2    1
     8     2     3    2
     9     3    21    1
    10    21    22    1
    11    22    23    1
    12    23    24   ar
    13    24    25   ar
    14    25    26   ar
    15    26    29    1
    16    29    31    1
    17    31    32    1
    18    31    33    2
    19    31    34    2
    20    26    27   ar
    21    27    28   ar
    22     3     4    1
    23     4     5    1
    24     4     6    1
    25     6     7    1
    26     7     8   ar
    27     8     9   ar
    28     9    10   ar
    29    10    11   ar
    30    11    12   ar
    31    16    17   ar
    32    17    18   ar
    33    18    13   ar
    34    12     1    1
    35    28    23   ar
    36    12     7   ar
    37    29    30    1
@<TRIPOS>MOLECULE
*****
 34 37 0 0 0
SMALL
GASTEIGER

@<TRIPOS>ATOM
      1 C         141.3933  139.6293  161.3228 C.3     1  UNL1        0.1518
      2 N         142.7774  140.2039  161.2600 N.2     1  UNL1       -0.2172
      3 C         143.8583  140.1549  162.2989 C.2     1  UNL1        0.2843
      4 N         143.8221  139.5191  163.6571 N.pl3   1  UNL1       -0.2584
      5 C         145.0780  139.6435  164.4677 C.3     1  UNL1        0.1169
      6 C         142.6959  138.7754  164.3117 C.3     1  UNL1        0.1216
      7 C         141.3279  138.4837  163.7700 C.ar    1  UNL1       -0.0041
      8 C         140.5028  137.7081  164.7538 C.ar    1  UNL1       -0.0029
      9 C         139.0980  137.3126  164.4073 C.ar    1  UNL1       -0.0003
     10 C         138.5183  137.6926  163.0770 C.ar    1  UNL1       -0.0003
     11 C         139.3433  138.4682  162.0933 C.ar    1  UNL1       -0.0023
     12 C         140.7481  138.8637  162.4398 C.ar    1  UNL1        0.0018
     13 C         138.8382  140.2894  157.6778 C.ar    1  UNL1        0.0252
     14 C         139.6430  139.0308  157.8116 C.ar    1  UNL1        0.0059
     15 C         140.4947  138.8107  159.0265 C.ar    1  UNL1       -0.0016
     16 C         140.5416  139.8493  160.1078 C.ar    1  UNL1        0.0041
     17 C         139.7366  141.1081  159.9741 C.ar    1  UNL1       -0.0016
     18 C         138.8849  141.3281  158.7591 C.ar    1  UNL1        0.0059
     19 C         136.7823  141.4005  156.5426 C.3     1  UNL1        0.0742
     20 S         137.9864  140.5096  156.4629 S.3     1  UNL1       -0.1127
     21 O         145.1457  140.8310  161.9310 O.2     1  UNL1       -0.4449
     22 C         145.2260  142.3286  161.9065 C.3     1  UNL1        0.2350
     23 C         144.0208  143.1502  162.2565 C.ar    1  UNL1        0.0213
     24 C         143.0522  143.5550  161.1850 C.ar    1  UNL1        0.0006
     25 C         141.8470  144.3765  161.5350 C.ar    1  UNL1        0.0156
     26 C         141.6103  144.7933  162.9564 C.ar    1  UNL1        0.0644
     27 C         142.5789  144.3885  164.0278 C.ar    1  UNL1        0.0156
     28 C         143.7842  143.5669  163.6778 C.ar    1  UNL1        0.0006
     29 N         140.4051  145.6148  163.3064 N.pl3   1  UNL1       -0.2187
     30 H         140.5115  146.5573  163.5702 H       1  UNL1        0.1734
     31 S         139.0377  145.0003  163.2543 S.O2    1  UNL1        0.0558
     32 C         137.6703  144.3858  163.2023 C.3     1  UNL1        0.1996
     33 O         138.7990  145.6443  161.9208 O.2     1  UNL1       -0.1544
     34 O         139.2764  144.3564  164.5878 O.2     1  UNL1       -0.1544
@<TRIPOS>BOND
     1    19    20    1
     2    20    13    1
     3    13    14   ar
     4    14    15   ar
     5    15    16   ar
     6     1    16    1
     7     1     2    1
     8     2     3    2
     9     3    21    1
    10    21    22    1
    11    22    23    1
    12    23    24   ar
    13    24    25   ar
    14    25    26   ar
    15    26    29    1
    16    29    31    1
    17    31    32    1
    18    31    33    2
    19    31    34    2
    20    26    27   ar
    21    27    28   ar
    22     3     4    1
    23     4     5    1
    24     4     6    1
    25     6     7    1
    26     7     8   ar
    27     8     9   ar
    28     9    10   ar
    29    10    11   ar
    30    11    12   ar
    31    16    17   ar
    32    17    18   ar
    33    18    13   ar
    34    12     1    1
    35    28    23   ar
    36    12     7   ar
    37    29    30    1
@<TRIPOS>MOLECULE
*****
 34 37 0 0 0
SMALL
GASTEIGER

@<TRIPOS>ATOM
      1 C         142.1351  140.0972  165.0184 C.3     1  UNL1        0.1518
      2 N         143.4038  140.5556  164.3625 N.2     1  UNL1       -0.2172
      3 C         143.9446  140.1876  163.0127 C.2     1  UNL1        0.2843
      4 N         143.3503  139.2702  161.9853 N.pl3   1  UNL1       -0.2584
      5 C         144.1427  139.1072  160.7223 C.3     1  UNL1        0.1169
      6 C         142.0684  138.4944  162.0542 C.3     1  UNL1        0.1216
      7 C         141.0641  138.4443  163.1673 C.ar    1  UNL1       -0.0041
      8 C         139.9165  137.5394  162.8296 C.ar    1  UNL1       -0.0029
      9 C         138.7985  137.3479  163.8111 C.ar    1  UNL1       -0.0003
     10 C         138.8281  138.0613  165.1303 C.ar    1  UNL1       -0.0003
     11 C         139.9758  138.9661  165.4680 C.ar    1  UNL1       -0.0023
     12 C         141.0938  139.1576  164.4865 C.ar    1  UNL1        0.0018
     13 C         141.3486  141.7610  169.1249 C.ar    1  UNL1        0.0252
     14 C         140.8112  142.4655  167.9147 C.ar    1  UNL1        0.0059
     15 C         141.0733  141.9110  166.5459 C.ar    1  UNL1       -0.0016
     16 C         141.8729  140.6518  166.3872 C.ar    1  UNL1        0.0041
     17 C         142.4104  139.9472  167.5975 C.ar    1  UNL1       -0.0016
     18 C         142.1482  140.5018  168.9664 C.ar    1  UNL1        0.0059
     19 C         139.7893  143.0099  170.7859 C.3     1  UNL1        0.0742
     20 S         141.0865  142.3155  170.4938 S.3     1  UNL1       -0.1127
     21 O         145.2528  140.8205  162.6410 O.2     1  UNL1       -0.4449
     22 C         145.3053  142.2741  162.2746 C.3     1  UNL1        0.2350
     23 C         144.1690  142.8991  161.5207 C.ar    1  UNL1        0.0213
     24 C         143.1664  143.7487  162.2440 C.ar    1  UNL1        0.0006
     25 C         142.0301  144.3737  161.4902 C.ar    1  UNL1        0.0156
     26 C         141.8965  144.1491  160.0131 C.ar    1  UNL1        0.0644
     27 C         142.8991  143.2996  159.2899 C.ar    1  UNL1        0.0156
     28 C         144.0354  142.6746  160.0437 C.ar    1  UNL1        0.0006
     29 N         140.7602  144.7742  159.2592 N.pl3   1  UNL1       -0.2187
     30 H         140.6488  145.7523  159.2588 H       1  UNL1        0.1734
     31 S         139.7938  143.9088  158.5061 S.O2    1  UNL1        0.0558
     32 C         138.8274  143.0434  157.7530 C.3     1  UNL1        0.1996
     33 O         139.1260  143.5324  159.7954 O.2     1  UNL1       -0.1544
     34 O         140.4616  144.2851  157.2168 O.2     1  UNL1       -0.1544
@<TRIPOS>BOND
     1    19    20    1
     2    20    13    1
     3    13    14   ar
     4    14    15   ar
     5    15    16   ar
     6     1    16    1
     7     1     2    1
     8     2     3    2
     9     3    21    1
    10    21    22    1
    11    22    23    1
    12    23    24   ar
    13    24    25   ar
    14    25    26   ar
    15    26    29    1
    16    29    31    1
    17    31    32    1
    18    31    33    2
    19    31    34    2
    20    26    27   ar
    21    27    28   ar
    22     3     4    1
    23     4     5    1
    24     4     6    1
    25     6     7    1
    26     7     8   ar
    27     8     9   ar
    28     9    10   ar
    29    10    11   ar
    30    11    12   ar
    31    16    17   ar
    32    17    18   ar
    33    18    13   ar
    34    12     1    1
    35    28    23   ar
    36    12     7   ar
    37    29    30    1
