@<TRIPOS>MOLECULE
*****
 31 33 0 0 0
SMALL
GASTEIGER

@<TRIPOS>ATOM
      1 C         139.7576  139.9938  167.0162 C.2     1  UNL1        0.0499
      2 C         138.8053  139.2078  166.1647 C.2     1  UNL1        0.0597
      3 C         137.7948  138.2151  166.6581 C.3     1  UNL1        0.0519
      4 N         139.0408  139.5886  164.7331 N.2     1  UNL1       -0.2538
      5 C         140.1387  140.6101  164.6998 C.2     1  UNL1        0.0626
      6 C         140.5818  140.8605  166.1108 C.3     1  UNL1        0.0681
      7 C         141.6597  141.8108  166.5410 C.3     1  UNL1        0.0112
      8 C         140.6958  141.2660  163.4711 C.2     1  UNL1        0.0196
      9 C         140.1671  142.5974  163.0265 C.2     1  UNL1        0.0561
     10 C         139.0889  143.3892  163.7052 C.2     1  UNL1        0.2496
     11 O         138.3502  142.9886  164.9477 O.2     1  UNL1       -0.2698
     12 N         138.8792  144.6519  162.9232 N.am    1  UNL1       -0.2804
     13 C         139.8277  144.6406  161.7612 C.ar    1  UNL1        0.0508
     14 C         140.0695  145.6224  160.6533 C.ar    1  UNL1        0.0170
     15 C         141.1072  145.3344  159.6092 C.ar    1  UNL1        0.0309
     16 C         141.9032  144.0646  159.6731 C.ar    1  UNL1        0.1402
     17 F         142.9409  143.7767  158.6289 F       1  UNL1       -0.2042
     18 C         141.6614  143.0828  160.7810 C.ar    1  UNL1        0.0310
     19 C         140.6237  143.3708  161.8251 C.ar    1  UNL1        0.0201
     20 H         138.2325  145.3633  163.1353 H       1  UNL1        0.1552
     21 N         141.2148  139.8204  169.1601 N.am    1  UNL1       -0.2997
     22 C         139.8667  139.9252  168.5106 C.2     1  UNL1        0.2434
     23 O         138.6279  139.9615  169.3556 O.2     1  UNL1       -0.2704
     24 H         142.0279  139.7966  168.6056 H       1  UNL1        0.1498
     25 C         141.3239  139.7518  170.6546 C.3     1  UNL1        0.1070
     26 C         141.3188  141.0136  171.4657 C.3     1  UNL1        0.0936
     27 N         141.4245  142.3448  170.7825 N.3     1  UNL1       -0.2712
     28 C         140.2265  144.5242  170.0308 C.3     1  UNL1        0.0188
     29 C         140.1842  143.0541  170.3258 C.3     1  UNL1        0.0722
     30 C         142.7706  142.9667  170.5559 C.3     1  UNL1        0.0722
     31 C         143.6975  142.3942  169.5250 C.3     1  UNL1        0.0188
@<TRIPOS>BOND
     1    28    29    1
     2    29    27    1
     3    27    30    1
     4    30    31    1
     5    27    26    1
     6    26    25    1
     7    25    21    1
     8    21    22   am
     9    22    23    2
    10    22     1    1
    11     1     2    2
    12     2     3    1
    13     2     4    1
    14     4     5    2
    15     5     8    1
    16     8     9    2
    17     9    10    1
    18    10    11    2
    19    10    12   am
    20    12    13    1
    21    13    14   ar
    22    14    15   ar
    23    15    16   ar
    24    16    17    1
    25    16    18   ar
    26    18    19   ar
    27     5     6    1
    28     6     7    1
    29     6     1    1
    30    19     9    1
    31    19    13   ar
    32    21    24    1
    33    12    20    1
@<TRIPOS>MOLECULE
*****
 31 33 0 0 0
SMALL
GASTEIGER

@<TRIPOS>ATOM
      1 C         142.5166  139.1366  160.9560 C.2     1  UNL1        0.0499
      2 C         143.3611  140.3719  161.0590 C.2     1  UNL1        0.0597
      3 C         143.8415  141.2097  159.9113 C.3     1  UNL1        0.0519
      4 N         143.6408  140.6224  162.5112 N.2     1  UNL1       -0.2538
      5 C         142.9692  139.5419  163.3057 C.2     1  UNL1        0.0626
      6 C         142.2743  138.6235  162.3446 C.3     1  UNL1        0.0681
      7 C         141.4773  137.4060  162.7081 C.3     1  UNL1        0.0112
      8 C         142.9889  139.4039  164.7993 C.2     1  UNL1        0.0196
      9 C         141.8178  139.8721  165.6113 C.2     1  UNL1        0.0561
     10 C         140.5640  140.4948  165.0727 C.2     1  UNL1        0.2496
     11 O         140.2612  140.7588  163.6275 O.2     1  UNL1       -0.2698
     12 N         139.6663  140.8073  166.2330 N.am    1  UNL1       -0.2804
     13 C         140.3652  140.3777  167.4888 C.ar    1  UNL1        0.0508
     14 C         139.9626  140.4381  168.9324 C.ar    1  UNL1        0.0170
     15 C         140.8897  139.9205  169.9918 C.ar    1  UNL1        0.0309
     16 C         142.2195  139.3425  169.6076 C.ar    1  UNL1        0.1402
     17 F         143.1466  138.8249  170.6671 F       1  UNL1       -0.2042
     18 C         142.6221  139.2820  168.1640 C.ar    1  UNL1        0.0310
     19 C         141.6949  139.7996  167.1045 C.ar    1  UNL1        0.0201
     20 H         138.7748  141.2217  166.1797 H       1  UNL1        0.1552
     21 N         142.9568  137.8586  158.7372 N.am    1  UNL1       -0.2997
     22 C         142.0042  138.5221  159.6871 C.2     1  UNL1        0.2434
     23 O         140.5393  138.5711  159.3682 O.2     1  UNL1       -0.2704
     24 H         143.9183  137.8264  158.9465 H       1  UNL1        0.1498
     25 C         142.4445  137.2441  157.4684 C.3     1  UNL1        0.1070
     26 C         143.3251  136.3304  156.6686 C.3     1  UNL1        0.0936
     27 N         143.0435  134.8575  156.6346 N.3     1  UNL1       -0.2712
     28 C         144.6166  133.0897  157.7072 C.3     1  UNL1        0.0188
     29 C         143.4236  133.9941  157.8009 C.3     1  UNL1        0.0722
     30 C         142.3818  134.2478  155.4345 C.3     1  UNL1        0.0722
     31 C         141.6245  132.9600  155.5687 C.3     1  UNL1        0.0188
@<TRIPOS>BOND
     1    28    29    1
     2    29    27    1
     3    27    30    1
     4    30    31    1
     5    27    26    1
     6    26    25    1
     7    25    21    1
     8    21    22   am
     9    22    23    2
    10    22     1    1
    11     1     2    2
    12     2     3    1
    13     2     4    1
    14     4     5    2
    15     5     8    1
    16     8     9    2
    17     9    10    1
    18    10    11    2
    19    10    12   am
    20    12    13    1
    21    13    14   ar
    22    14    15   ar
    23    15    16   ar
    24    16    17    1
    25    16    18   ar
    26    18    19   ar
    27     5     6    1
    28     6     7    1
    29     6     1    1
    30    19     9    1
    31    19    13   ar
    32    21    24    1
    33    12    20    1
@<TRIPOS>MOLECULE
*****
 31 33 0 0 0
SMALL
GASTEIGER

@<TRIPOS>ATOM
      1 C         138.4512  140.0158  164.3460 C.2     1  UNL1        0.0499
      2 C         138.0827  141.3090  163.6813 C.2     1  UNL1        0.0597
      3 C         137.6814  142.5753  164.3780 C.3     1  UNL1        0.0519
      4 N         138.1859  141.1136  162.1977 N.2     1  UNL1       -0.2538
      5 C         138.6183  139.6996  161.9455 C.2     1  UNL1        0.0626
      6 C         138.7822  139.0211  163.2732 C.3     1  UNL1        0.0681
      7 C         139.2033  137.5979  163.4900 C.3     1  UNL1        0.0112
      8 C         138.8466  139.0738  160.6014 C.2     1  UNL1        0.0196
      9 C         140.2226  139.0603  160.0044 C.2     1  UNL1        0.0561
     10 C         141.4608  139.6306  160.6302 C.2     1  UNL1        0.2496
     11 O         141.5405  140.3144  161.9628 O.2     1  UNL1       -0.2698
     12 N         142.6054  139.3968  159.6893 N.am    1  UNL1       -0.2804
     13 C         142.0746  138.6821  158.4820 C.ar    1  UNL1        0.0508
     14 C         142.7420  138.1939  157.2306 C.ar    1  UNL1        0.0170
     15 C         141.9367  137.4977  156.1739 C.ar    1  UNL1        0.0309
     16 C         140.4640  137.2897  156.3686 C.ar    1  UNL1        0.1402
     17 F         139.6587  136.5934  155.3118 F       1  UNL1       -0.2042
     18 C         139.7966  137.7779  157.6201 C.ar    1  UNL1        0.0310
     19 C         140.6019  138.4742  158.6768 C.ar    1  UNL1        0.0201
     20 H         143.5408  139.6653  159.8380 H       1  UNL1        0.1552
     21 N         139.4794  140.4784  166.6867 N.am    1  UNL1       -0.2997
     22 C         138.4831  139.7619  165.8240 C.2     1  UNL1        0.2434
     23 O         137.5188  138.7917  166.4394 O.2     1  UNL1       -0.2704
     24 H         140.1123  141.1152  166.2828 H       1  UNL1        0.1498
     25 C         139.5113  140.2245  168.1647 C.3     1  UNL1        0.1070
     26 C         140.4916  140.9586  169.0308 C.3     1  UNL1        0.0936
     27 N         141.9648  140.7944  168.8015 N.3     1  UNL1       -0.2712
     28 C         142.6610  138.6014  170.0081 C.3     1  UNL1        0.0188
     29 C         142.5684  139.4220  168.7559 C.3     1  UNL1        0.0722
     30 C         142.8345  142.0026  168.6178 C.3     1  UNL1        0.0722
     31 C         143.7961  142.4057  169.6962 C.3     1  UNL1        0.0188
@<TRIPOS>BOND
     1    28    29    1
     2    29    27    1
     3    27    30    1
     4    30    31    1
     5    27    26    1
     6    26    25    1
     7    25    21    1
     8    21    22   am
     9    22    23    2
    10    22     1    1
    11     1     2    2
    12     2     3    1
    13     2     4    1
    14     4     5    2
    15     5     8    1
    16     8     9    2
    17     9    10    1
    18    10    11    2
    19    10    12   am
    20    12    13    1
    21    13    14   ar
    22    14    15   ar
    23    15    16   ar
    24    16    17    1
    25    16    18   ar
    26    18    19   ar
    27     5     6    1
    28     6     7    1
    29     6     1    1
    30    19     9    1
    31    19    13   ar
    32    21    24    1
    33    12    20    1
@<TRIPOS>MOLECULE
*****
 31 33 0 0 0
SMALL
GASTEIGER

@<TRIPOS>ATOM
      1 C         139.0824  140.5634  161.0566 C.2     1  UNL1        0.0499
      2 C         140.2870  139.6856  161.2251 C.2     1  UNL1        0.0597
      3 C         140.8096  138.7032  160.2194 C.3     1  UNL1        0.0519
      4 N         140.8772  139.9628  162.5759 N.2     1  UNL1       -0.2538
      5 C         140.0373  141.0119  163.2423 C.2     1  UNL1        0.0626
      6 C         138.9281  141.3831  162.3033 C.3     1  UNL1        0.0681
      7 C         137.8532  142.3960  162.5651 C.3     1  UNL1        0.0112
      8 C         140.2665  141.5886  164.6080 C.2     1  UNL1        0.0196
      9 C         139.7957  140.8471  165.8239 C.2     1  UNL1        0.0561
     10 C         139.0850  139.5262  165.8308 C.2     1  UNL1        0.2496
     11 O         138.7202  138.7149  164.6231 O.2     1  UNL1       -0.2698
     12 N         138.8030  139.1591  167.2576 N.am    1  UNL1       -0.2804
     13 C         139.3395  140.2531  168.1325 C.ar    1  UNL1        0.0508
     14 C         139.3486  140.4340  169.6215 C.ar    1  UNL1        0.0170
     15 C         139.9712  141.6583  170.2244 C.ar    1  UNL1        0.0309
     16 C         140.5847  142.7016  169.3383 C.ar    1  UNL1        0.1402
     17 F         141.2074  143.9258  169.9413 F       1  UNL1       -0.2042
     18 C         140.5757  142.5206  167.8493 C.ar    1  UNL1        0.0310
     19 C         139.9530  141.2963  167.2464 C.ar    1  UNL1        0.0201
     20 H         138.3461  138.3433  167.5658 H       1  UNL1        0.1552
     21 N         138.5238  141.5212  158.7070 N.am    1  UNL1       -0.2997
     22 C         138.1889  140.6127  159.8527 C.2     1  UNL1        0.2434
     23 O         136.9606  139.7538  159.7945 O.2     1  UNL1       -0.2704
     24 H         139.3300  142.0849  158.7452 H       1  UNL1        0.1498
     25 C         137.6304  141.5705  157.5031 C.3     1  UNL1        0.1070
     26 C         137.6631  140.4570  156.4986 C.3     1  UNL1        0.0936
     27 N         136.4405  140.1409  155.6891 N.3     1  UNL1       -0.2712
     28 C         136.6229  137.9654  154.2806 C.3     1  UNL1        0.0188
     29 C         136.5769  139.4627  154.3582 C.3     1  UNL1        0.0722
     30 C         135.0815  140.5030  156.2105 C.3     1  UNL1        0.0722
     31 C         133.9717  140.8228  155.2535 C.3     1  UNL1        0.0188
@<TRIPOS>BOND
     1    28    29    1
     2    29    27    1
     3    27    30    1
     4    30    31    1
     5    27    26    1
     6    26    25    1
     7    25    21    1
     8    21    22   am
     9    22    23    2
    10    22     1    1
    11     1     2    2
    12     2     3    1
    13     2     4    1
    14     4     5    2
    15     5     8    1
    16     8     9    2
    17     9    10    1
    18    10    11    2
    19    10    12   am
    20    12    13    1
    21    13    14   ar
    22    14    15   ar
    23    15    16   ar
    24    16    17    1
    25    16    18   ar
    26    18    19   ar
    27     5     6    1
    28     6     7    1
    29     6     1    1
    30    19     9    1
    31    19    13   ar
    32    21    24    1
    33    12    20    1
@<TRIPOS>MOLECULE
*****
 31 33 0 0 0
SMALL
GASTEIGER

@<TRIPOS>ATOM
      1 C         140.3031  143.8887  161.6533 C.2     1  UNL1        0.0499
      2 C         139.3339  142.7440  161.6357 C.2     1  UNL1        0.0597
      3 C         138.7484  142.1033  160.4123 C.3     1  UNL1        0.0519
      4 N         139.0528  142.3526  163.0562 N.2     1  UNL1       -0.2538
      5 C         139.8483  143.2554  163.9518 C.2     1  UNL1        0.0626
      6 C         140.6211  144.2047  163.0848 C.3     1  UNL1        0.0681
      7 C         141.5489  145.2810  163.5650 C.3     1  UNL1        0.0112
      8 C         139.8677  143.2157  165.4512 C.2     1  UNL1        0.0196
      9 C         141.0207  142.5798  166.1698 C.2     1  UNL1        0.0561
     10 C         142.2187  141.9460  165.5271 C.2     1  UNL1        0.2496
     11 O         142.4742  141.8369  164.0531 O.2     1  UNL1       -0.2698
     12 N         143.1164  141.4405  166.6174 N.am    1  UNL1       -0.2804
     13 C         142.4732  141.7619  167.9338 C.ar    1  UNL1        0.0508
     14 C         142.8995  141.5044  169.3487 C.ar    1  UNL1        0.0170
     15 C         142.0306  141.9510  170.4869 C.ar    1  UNL1        0.0309
     16 C         140.7354  142.6551  170.2102 C.ar    1  UNL1        0.1402
     17 F         139.8665  143.1016  171.3485 F       1  UNL1       -0.2042
     18 C         140.3090  142.9126  168.7954 C.ar    1  UNL1        0.0310
     19 C         141.1779  142.4660  167.6572 C.ar    1  UNL1        0.0201
     20 H         143.9767  140.9789  166.4911 H       1  UNL1        0.1552
     21 N         139.9318  145.2895  159.4970 N.am    1  UNL1       -0.2997
     22 C         140.8571  144.5935  160.4508 C.2     1  UNL1        0.2434
     23 O         142.3362  144.6024  160.2018 O.2     1  UNL1       -0.2704
     24 H         138.9610  145.2837  159.6604 H       1  UNL1        0.1498
     25 C         140.4859  145.9944  158.2945 C.3     1  UNL1        0.1070
     26 C         140.4076  145.3471  156.9436 C.3     1  UNL1        0.0936
     27 N         139.2345  145.6179  156.0489 N.3     1  UNL1       -0.2712
     28 C         139.7699  147.7182  154.6163 C.3     1  UNL1        0.0188
     29 C         138.9155  147.0240  155.6353 C.3     1  UNL1        0.0722
     30 C         138.3802  144.4827  155.5679 C.3     1  UNL1        0.0722
     31 C         137.2592  144.7428  154.6059 C.3     1  UNL1        0.0188
@<TRIPOS>BOND
     1    28    29    1
     2    29    27    1
     3    27    30    1
     4    30    31    1
     5    27    26    1
     6    26    25    1
     7    25    21    1
     8    21    22   am
     9    22    23    2
    10    22     1    1
    11     1     2    2
    12     2     3    1
    13     2     4    1
    14     4     5    2
    15     5     8    1
    16     8     9    2
    17     9    10    1
    18    10    11    2
    19    10    12   am
    20    12    13    1
    21    13    14   ar
    22    14    15   ar
    23    15    16   ar
    24    16    17    1
    25    16    18   ar
    26    18    19   ar
    27     5     6    1
    28     6     7    1
    29     6     1    1
    30    19     9    1
    31    19    13   ar
    32    21    24    1
    33    12    20    1
@<TRIPOS>MOLECULE
*****
 31 33 0 0 0
SMALL
GASTEIGER

@<TRIPOS>ATOM
      1 C         139.6437  139.9794  161.9394 C.2     1  UNL1        0.0499
      2 C         138.6120  139.1345  162.6263 C.2     1  UNL1        0.0597
      3 C         137.8653  137.9854  162.0165 C.3     1  UNL1        0.0519
      4 N         138.4581  139.6406  164.0299 N.2     1  UNL1       -0.2538
      5 C         139.3947  140.7982  164.2105 C.2     1  UNL1        0.0626
      6 C         140.1275  141.0076  162.9186 C.3     1  UNL1        0.0681
      7 C         141.1623  142.0604  162.6525 C.3     1  UNL1        0.0112
      8 C         139.5681  141.6049  165.4633 C.2     1  UNL1        0.0196
      9 C         140.6884  141.2893  166.4095 C.2     1  UNL1        0.0561
     10 C         141.7083  140.2029  166.2373 C.2     1  UNL1        0.2496
     11 O         141.7869  139.2414  165.0887 O.2     1  UNL1       -0.2698
     12 N         142.6358  140.2470  167.4154 N.am    1  UNL1       -0.2804
     13 C         142.1891  141.3606  168.3156 C.ar    1  UNL1        0.0508
     14 C         142.7229  141.8712  169.6211 C.ar    1  UNL1        0.0170
     15 C         142.0530  143.0260  170.3050 C.ar    1  UNL1        0.0309
     16 C         140.8495  143.6702  169.6833 C.ar    1  UNL1        0.1402
     17 F         140.1796  144.8251  170.3672 F       1  UNL1       -0.2042
     18 C         140.3158  143.1596  168.3778 C.ar    1  UNL1        0.0310
     19 C         140.9856  142.0048  167.6940 C.ar    1  UNL1        0.0201
     20 H         143.4030  139.6499  167.5705 H       1  UNL1        0.1552
     21 N         140.8467  138.5845  160.1072 N.am    1  UNL1       -0.2997
     22 C         140.1099  139.8234  160.5223 C.2     1  UNL1        0.2434
     23 O         139.8393  140.9062  159.5202 O.2     1  UNL1       -0.2704
     24 H         141.0244  137.8738  160.7649 H       1  UNL1        0.1498
     25 C         141.3129  138.4285  158.6900 C.3     1  UNL1        0.1070
     26 C         142.7683  138.5770  158.3586 C.3     1  UNL1        0.0936
     27 N         143.6538  139.4181  159.2294 N.3     1  UNL1       -0.2712
     28 C         143.8907  139.6287  161.8081 C.3     1  UNL1        0.0188
     29 C         144.1526  138.8772  160.5366 C.3     1  UNL1        0.0722
     30 C         144.0406  140.8001  158.7931 C.3     1  UNL1        0.0722
     31 C         143.1173  141.9539  159.0504 C.3     1  UNL1        0.0188
@<TRIPOS>BOND
     1    28    29    1
     2    29    27    1
     3    27    30    1
     4    30    31    1
     5    27    26    1
     6    26    25    1
     7    25    21    1
     8    21    22   am
     9    22    23    2
    10    22     1    1
    11     1     2    2
    12     2     3    1
    13     2     4    1
    14     4     5    2
    15     5     8    1
    16     8     9    2
    17     9    10    1
    18    10    11    2
    19    10    12   am
    20    12    13    1
    21    13    14   ar
    22    14    15   ar
    23    15    16   ar
    24    16    17    1
    25    16    18   ar
    26    18    19   ar
    27     5     6    1
    28     6     7    1
    29     6     1    1
    30    19     9    1
    31    19    13   ar
    32    21    24    1
    33    12    20    1
@<TRIPOS>MOLECULE
*****
 31 33 0 0 0
SMALL
GASTEIGER

@<TRIPOS>ATOM
      1 C         142.5541  140.1702  162.0277 C.2     1  UNL1        0.0499
      2 C         143.5138  139.1007  162.4578 C.2     1  UNL1        0.0597
      3 C         144.0051  137.9645  161.6107 C.3     1  UNL1        0.0519
      4 N         143.8960  139.3668  163.8836 N.2     1  UNL1       -0.2538
      5 C         143.1725  140.6009  164.3348 C.2     1  UNL1        0.0626
      6 C         142.3431  141.0974  163.1878 C.3     1  UNL1        0.0681
      7 C         141.4582  142.3085  163.1990 C.3     1  UNL1        0.0112
      8 C         143.2626  141.2283  165.6944 C.2     1  UNL1        0.0196
      9 C         142.2681  140.8631  166.7563 C.2     1  UNL1        0.0561
     10 C         141.1349  139.8917  166.6064 C.2     1  UNL1        0.2496
     11 O         140.7972  139.1151  165.3684 O.2     1  UNL1       -0.2698
     12 N         140.3987  139.8335  167.9120 N.am    1  UNL1       -0.2804
     13 C         141.0768  140.7687  168.8688 C.ar    1  UNL1        0.0508
     14 C         140.7915  141.1232  170.2981 C.ar    1  UNL1        0.0170
     15 C         141.6616  142.1139  171.0131 C.ar    1  UNL1        0.0309
     16 C         142.8170  142.7502  170.2988 C.ar    1  UNL1        0.1402
     17 F         143.6871  143.7411  171.0139 F       1  UNL1       -0.2042
     18 C         143.1023  142.3958  168.8695 C.ar    1  UNL1        0.0310
     19 C         142.2322  141.4051  168.1545 C.ar    1  UNL1        0.0201
     20 H         139.6090  139.2787  168.1068 H       1  UNL1        0.1552
     21 N         140.9407  139.2518  160.2102 N.am    1  UNL1       -0.2997
     22 C         141.9172  140.2913  160.6751 C.2     1  UNL1        0.2434
     23 O         142.2565  141.4518  159.7874 O.2     1  UNL1       -0.2704
     24 H         140.7180  138.4901  160.7928 H       1  UNL1        0.1498
     25 C         140.3038  139.3729  158.8576 C.3     1  UNL1        0.1070
     26 C         139.0048  140.1070  158.7032 C.3     1  UNL1        0.0936
     27 N         138.2893  140.6281  159.9142 N.3     1  UNL1       -0.2712
     28 C         137.7942  138.7888  161.6812 C.3     1  UNL1        0.0188
     29 C         137.3099  139.7544  160.6404 C.3     1  UNL1        0.0722
     30 C         138.5532  142.0228  160.3991 C.3     1  UNL1        0.0722
     31 C         137.9919  142.4788  161.7132 C.3     1  UNL1        0.0188
@<TRIPOS>BOND
     1    28    29    1
     2    29    27    1
     3    27    30    1
     4    30    31    1
     5    27    26    1
     6    26    25    1
     7    25    21    1
     8    21    22   am
     9    22    23    2
    10    22     1    1
    11     1     2    2
    12     2     3    1
    13     2     4    1
    14     4     5    2
    15     5     8    1
    16     8     9    2
    17     9    10    1
    18    10    11    2
    19    10    12   am
    20    12    13    1
    21    13    14   ar
    22    14    15   ar
    23    15    16   ar
    24    16    17    1
    25    16    18   ar
    26    18    19   ar
    27     5     6    1
    28     6     7    1
    29     6     1    1
    30    19     9    1
    31    19    13   ar
    32    21    24    1
    33    12    20    1
@<TRIPOS>MOLECULE
*****
 31 33 0 0 0
SMALL
GASTEIGER

@<TRIPOS>ATOM
      1 C         142.3821  143.4513  161.6184 C.2     1  UNL1        0.0499
      2 C         143.6838  142.8482  162.0564 C.2     1  UNL1        0.0597
      3 C         144.8396  142.5025  161.1650 C.3     1  UNL1        0.0519
      4 N         143.6268  142.6514  163.5423 N.2     1  UNL1       -0.2538
      5 C         142.2899  143.1329  164.0227 C.2     1  UNL1        0.0626
      6 C         141.5207  143.6272  162.8337 C.3     1  UNL1        0.0681
      7 C         140.1335  144.1975  162.8560 C.3     1  UNL1        0.0112
      8 C         141.8070  143.1219  165.4429 C.2     1  UNL1        0.0196
      9 C         141.0939  141.9180  165.9834 C.2     1  UNL1        0.0561
     10 C         140.7928  140.6583  165.2268 C.2     1  UNL1        0.2496
     11 O         141.1518  140.3813  163.7970 O.2     1  UNL1       -0.2698
     12 N         140.0695  139.7242  166.1512 N.am    1  UNL1       -0.2804
     13 C         139.9237  140.4067  167.4790 C.ar    1  UNL1        0.0508
     14 C         139.2962  139.9686  168.7690 C.ar    1  UNL1        0.0170
     15 C         139.3018  140.8865  169.9554 C.ar    1  UNL1        0.0309
     16 C         139.9349  142.2424  169.8517 C.ar    1  UNL1        0.1402
     17 F         139.9405  143.1602  171.0381 F       1  UNL1       -0.2042
     18 C         140.5624  142.6804  168.5616 C.ar    1  UNL1        0.0310
     19 C         140.5568  141.7625  167.3752 C.ar    1  UNL1        0.0201
     20 H         139.7471  138.8217  165.9259 H       1  UNL1        0.1552
     21 N         141.9447  145.2559  159.8014 N.am    1  UNL1       -0.2997
     22 C         142.0077  143.8146  160.2121 C.2     1  UNL1        0.2434
     23 O         141.6962  142.7368  159.2165 O.2     1  UNL1       -0.2704
     24 H         142.1491  145.9634  160.4548 H       1  UNL1        0.1498
     25 C         141.5702  145.6193  158.3950 C.3     1  UNL1        0.1070
     26 C         140.1252  145.7340  158.0095 C.3     1  UNL1        0.0936
     27 N         139.6510  145.1727  156.7018 N.3     1  UNL1       -0.2712
     28 C         139.1566  147.4663  155.5860 C.3     1  UNL1        0.0188
     29 C         139.6172  146.0427  155.4803 C.3     1  UNL1        0.0722
     30 C         139.2106  143.7414  156.6155 C.3     1  UNL1        0.0722
     31 C         138.0741  143.3594  155.7141 C.3     1  UNL1        0.0188
@<TRIPOS>BOND
     1    28    29    1
     2    29    27    1
     3    27    30    1
     4    30    31    1
     5    27    26    1
     6    26    25    1
     7    25    21    1
     8    21    22   am
     9    22    23    2
    10    22     1    1
    11     1     2    2
    12     2     3    1
    13     2     4    1
    14     4     5    2
    15     5     8    1
    16     8     9    2
    17     9    10    1
    18    10    11    2
    19    10    12   am
    20    12    13    1
    21    13    14   ar
    22    14    15   ar
    23    15    16   ar
    24    16    17    1
    25    16    18   ar
    26    18    19   ar
    27     5     6    1
    28     6     7    1
    29     6     1    1
    30    19     9    1
    31    19    13   ar
    32    21    24    1
    33    12    20    1
@<TRIPOS>MOLECULE
*****
 31 33 0 0 0
SMALL
GASTEIGER

@<TRIPOS>ATOM
      1 C         141.6174  142.7602  162.9401 C.2     1  UNL1        0.0499
      2 C         142.7318  143.7573  163.0572 C.2     1  UNL1        0.0597
      3 C         143.8105  143.7555  164.0994 C.3     1  UNL1        0.0519
      4 N         142.5782  144.7564  161.9490 N.2     1  UNL1       -0.2538
      5 C         141.3688  144.3768  161.1470 C.2     1  UNL1        0.0626
      6 C         140.7750  143.1431  161.7596 C.3     1  UNL1        0.0681
      7 C         139.5532  142.4193  161.2764 C.3     1  UNL1        0.0112
      8 C         140.8451  145.1035  159.9437 C.2     1  UNL1        0.0196
      9 C         141.4777  144.8846  158.6013 C.2     1  UNL1        0.0561
     10 C         142.6341  143.9750  158.3094 C.2     1  UNL1        0.2496
     11 O         143.3610  143.1245  159.3085 O.2     1  UNL1       -0.2698
     12 N         142.9359  144.0652  156.8428 N.am    1  UNL1       -0.2804
     13 C         141.9661  145.0306  156.2284 C.ar    1  UNL1        0.0508
     14 C         141.7872  145.5139  154.8198 C.ar    1  UNL1        0.0170
     15 C         140.7070  146.5036  154.4980 C.ar    1  UNL1        0.0309
     16 C         139.8058  147.0101  155.5848 C.ar    1  UNL1        0.1402
     17 F         138.7256  147.9999  155.2629 F       1  UNL1       -0.2042
     18 C         139.9846  146.5268  156.9935 C.ar    1  UNL1        0.0310
     19 C         141.0648  145.5370  157.3153 C.ar    1  UNL1        0.0201
     20 H         143.6459  143.5766  156.3670 H       1  UNL1        0.1552
     21 N         141.5802  140.1915  163.3280 N.am    1  UNL1       -0.2997
     22 C         141.3860  141.5863  163.8448 C.2     1  UNL1        0.2434
     23 O         140.9603  141.8070  165.2660 O.2     1  UNL1       -0.2704
     24 H         141.8596  140.0466  162.3952 H       1  UNL1        0.1498
     25 C         141.3488  139.0176  164.2327 C.3     1  UNL1        0.1070
     26 C         140.0153  138.3308  164.2440 C.3     1  UNL1        0.0936
     27 N         138.7541  139.1406  164.1845 N.3     1  UNL1       -0.2712
     28 C         138.0978  138.7637  166.6699 C.3     1  UNL1        0.0188
     29 C         138.1212  139.6370  165.4506 C.3     1  UNL1        0.0722
     30 C         138.1258  139.4540  162.8591 C.3     1  UNL1        0.0722
     31 C         137.9746  138.3761  161.8270 C.3     1  UNL1        0.0188
@<TRIPOS>BOND
     1    28    29    1
     2    29    27    1
     3    27    30    1
     4    30    31    1
     5    27    26    1
     6    26    25    1
     7    25    21    1
     8    21    22   am
     9    22    23    2
    10    22     1    1
    11     1     2    2
    12     2     3    1
    13     2     4    1
    14     4     5    2
    15     5     8    1
    16     8     9    2
    17     9    10    1
    18    10    11    2
    19    10    12   am
    20    12    13    1
    21    13    14   ar
    22    14    15   ar
    23    15    16   ar
    24    16    17    1
    25    16    18   ar
    26    18    19   ar
    27     5     6    1
    28     6     7    1
    29     6     1    1
    30    19     9    1
    31    19    13   ar
    32    21    24    1
    33    12    20    1
