@<TRIPOS>MOLECULE
*****
 29 31 0 0 0
SMALL
GASTEIGER

@<TRIPOS>ATOM
      1 C         140.9565  142.2914  166.0351 C.3     1  UNL1        0.1232
      2 S         140.0469  143.1654  165.2234 S.3     1  UNL1       -0.1046
      3 C         140.3627  143.9471  163.9827 C.ar    1  UNL1        0.0393
      4 C         139.1606  144.6930  163.4842 C.ar    1  UNL1        0.0074
      5 C         139.2619  145.5396  162.2501 C.ar    1  UNL1        0.0006
      6 C         140.5653  145.6402  161.5146 C.ar    1  UNL1        0.0013
      7 C         141.7674  144.8943  162.0131 C.ar    1  UNL1        0.0154
      8 C         141.6661  144.0478  163.2472 C.ar    1  UNL1        0.0596
      9 N         142.9756  143.3917  163.5707 N.am    1  UNL1       -0.2538
     10 C         143.3052  142.4729  164.7097 C.2     1  UNL1        0.2709
     11 O         144.7205  141.9783  164.7583 O.2     1  UNL1       -0.2706
     12 C         142.4066  141.9832  165.8064 C.3     1  UNL1        0.2585
     13 C         139.0882  140.3355  169.6314 C.ar    1  UNL1        0.1387
     14 C         138.9485  139.7051  168.2775 C.ar    1  UNL1        0.0366
     15 C         139.5713  140.3570  167.0787 C.ar    1  UNL1       -0.0002
     16 C         140.3338  141.6395  167.2338 C.ar    1  UNL1       -0.0080
     17 C         140.4734  142.2699  168.5877 C.ar    1  UNL1       -0.0002
     18 C         139.8506  141.6180  169.7865 C.ar    1  UNL1        0.0366
     19 C         137.0396  139.2205  170.7761 C.3     1  UNL1        0.2525
     20 O         138.4654  139.6835  170.8301 O.3     1  UNL1       -0.4714
     21 C         144.1049  143.6944  162.6310 C.3     1  UNL1        0.1156
     22 C         144.3874  142.7777  161.4778 C.3     1  UNL1        0.0943
     23 N         143.6247  141.4939  161.3360 N.3     1  UNL1       -0.2688
     24 C         142.2836  141.4886  160.6639 C.3     1  UNL1        0.0897
     25 C         144.2029  140.2155  161.8662 C.3     1  UNL1        0.0897
     26 O         143.0422  141.0638  166.8067 O.3     1  UNL1       -0.4415
     27 C         142.9931  139.5792  166.5981 C.2     1  UNL1        0.3179
     28 C         142.6061  139.0223  165.2601 C.3     1  UNL1        0.1212
     29 O         143.3310  138.6515  167.7273 O.2     1  UNL1       -0.2501
@<TRIPOS>BOND
     1    19    20    1
     2    20    13    1
     3    13    14   ar
     4    14    15   ar
     5    15    16   ar
     6    16     1    1
     7     1     2    1
     8     2     3    1
     9     3     4   ar
    10     4     5   ar
    11     5     6   ar
    12     6     7   ar
    13     7     8   ar
    14     8     9    1
    15     9    21    1
    16    21    22    1
    17    22    23    1
    18    23    24    1
    19    23    25    1
    20     9    10   am
    21    10    11    2
    22    10    12    1
    23    12    26    1
    24    26    27    1
    25    27    28    1
    26    27    29    2
    27    16    17   ar
    28    17    18   ar
    29    18    13   ar
    30    12     1    1
    31     8     3   ar
@<TRIPOS>MOLECULE
*****
 29 31 0 0 0
SMALL
GASTEIGER

@<TRIPOS>ATOM
      1 C         141.5916  139.6891  163.4511 C.3     1  UNL1        0.1232
      2 S         140.3928  138.9809  164.0090 S.3     1  UNL1       -0.1046
      3 C         139.7425  139.1563  165.3492 C.ar    1  UNL1        0.0393
      4 C         138.5603  138.2468  165.5080 C.ar    1  UNL1        0.0074
      5 C         137.7661  138.2644  166.7803 C.ar    1  UNL1        0.0006
      6 C         138.1540  139.1916  167.8938 C.ar    1  UNL1        0.0013
      7 C         139.3361  140.1011  167.7351 C.ar    1  UNL1        0.0154
      8 C         140.1304  140.0834  166.4627 C.ar    1  UNL1        0.0596
      9 N         141.2644  141.0641  166.5110 N.am    1  UNL1       -0.2538
     10 C         142.2906  141.3599  165.4577 C.2     1  UNL1        0.2709
     11 O         143.3053  142.4058  165.8131 O.2     1  UNL1       -0.2706
     12 C         142.4362  140.7479  164.0959 C.3     1  UNL1        0.2585
     13 C         142.8162  138.4777  159.2939 C.ar    1  UNL1        0.1387
     14 C         143.2680  137.6699  160.4742 C.ar    1  UNL1        0.0366
     15 C         142.8599  138.0737  161.8600 C.ar    1  UNL1       -0.0002
     16 C         141.9998  139.2853  162.0654 C.ar    1  UNL1       -0.0080
     17 C         141.5479  140.0932  160.8851 C.ar    1  UNL1       -0.0002
     18 C         141.9561  139.6894  159.4993 C.ar    1  UNL1        0.0366
     19 C         142.3922  137.0926  157.1371 C.3     1  UNL1        0.2525
     20 O         143.2243  138.0739  157.9082 O.3     1  UNL1       -0.4714
     21 C         141.3887  141.8534  167.7804 C.3     1  UNL1        0.1156
     22 C         142.4376  141.4907  168.7896 C.3     1  UNL1        0.0943
     23 N         142.0853  140.6164  169.9564 N.3     1  UNL1       -0.2688
     24 C         142.4024  139.1508  169.9179 C.3     1  UNL1        0.0897
     25 C         141.4161  141.2076  171.1615 C.3     1  UNL1        0.0897
     26 O         143.5773  141.2629  163.2696 O.3     1  UNL1       -0.4415
     27 C         144.9773  140.8081  163.5581 C.2     1  UNL1        0.3179
     28 C         145.2114  139.5261  164.3008 C.3     1  UNL1        0.1212
     29 O         146.1432  141.6353  163.1037 O.2     1  UNL1       -0.2501
@<TRIPOS>BOND
     1    19    20    1
     2    20    13    1
     3    13    14   ar
     4    14    15   ar
     5    15    16   ar
     6    16     1    1
     7     1     2    1
     8     2     3    1
     9     3     4   ar
    10     4     5   ar
    11     5     6   ar
    12     6     7   ar
    13     7     8   ar
    14     8     9    1
    15     9    21    1
    16    21    22    1
    17    22    23    1
    18    23    24    1
    19    23    25    1
    20     9    10   am
    21    10    11    2
    22    10    12    1
    23    12    26    1
    24    26    27    1
    25    27    28    1
    26    27    29    2
    27    16    17   ar
    28    17    18   ar
    29    18    13   ar
    30    12     1    1
    31     8     3   ar
@<TRIPOS>MOLECULE
*****
 29 31 0 0 0
SMALL
GASTEIGER

@<TRIPOS>ATOM
      1 C         141.0313  142.8039  163.8864 C.3     1  UNL1        0.1232
      2 S         139.8758  141.8927  164.1770 S.3     1  UNL1       -0.1046
      3 C         139.6382  141.0406  165.3884 C.ar    1  UNL1        0.0393
      4 C         138.3520  140.2769  165.2776 C.ar    1  UNL1        0.0074
      5 C         137.9251  139.3620  166.3869 C.ar    1  UNL1        0.0006
      6 C         138.7844  139.2106  167.6070 C.ar    1  UNL1        0.0013
      7 C         140.0707  139.9743  167.7178 C.ar    1  UNL1        0.0154
      8 C         140.4976  140.8892  166.6085 C.ar    1  UNL1        0.0596
      9 N         141.8067  141.5527  166.9185 N.am    1  UNL1       -0.2538
     10 C         142.5799  142.5312  166.0850 C.2     1  UNL1        0.2709
     11 O         143.8684  143.0171  166.6795 O.2     1  UNL1       -0.2706
     12 C         142.2348  143.0880  164.7356 C.3     1  UNL1        0.2585
     13 C         140.8659  144.9716  159.9465 C.ar    1  UNL1        0.1387
     14 C         141.3756  143.5621  160.0062 C.ar    1  UNL1        0.0366
     15 C         141.4307  142.8395  161.3195 C.ar    1  UNL1       -0.0002
     16 C         140.9762  143.5264  162.5732 C.ar    1  UNL1       -0.0080
     17 C         140.4665  144.9359  162.5134 C.ar    1  UNL1       -0.0002
     18 C         140.4114  145.6586  161.2001 C.ar    1  UNL1        0.0366
     19 C         140.5641  144.9298  157.3663 C.3     1  UNL1        0.2525
     20 O         140.8107  145.6942  158.6332 O.3     1  UNL1       -0.4714
     21 C         142.4244  141.1894  168.2363 C.3     1  UNL1        0.1156
     22 C         142.4746  142.1989  169.3448 C.3     1  UNL1        0.0943
     23 N         141.2292  142.5346  170.1103 N.3     1  UNL1       -0.2688
     24 C         140.7396  141.6127  171.1876 C.3     1  UNL1        0.0897
     25 C         140.4733  143.7921  169.7987 C.3     1  UNL1        0.0897
     26 O         143.2239  144.0572  164.1591 O.3     1  UNL1       -0.4415
     27 C         144.2882  143.5730  163.2196 C.2     1  UNL1        0.3179
     28 C         145.0392  142.3106  163.5235 C.3     1  UNL1        0.1212
     29 O         144.6014  144.3511  161.9760 O.2     1  UNL1       -0.2501
@<TRIPOS>BOND
     1    19    20    1
     2    20    13    1
     3    13    14   ar
     4    14    15   ar
     5    15    16   ar
     6    16     1    1
     7     1     2    1
     8     2     3    1
     9     3     4   ar
    10     4     5   ar
    11     5     6   ar
    12     6     7   ar
    13     7     8   ar
    14     8     9    1
    15     9    21    1
    16    21    22    1
    17    22    23    1
    18    23    24    1
    19    23    25    1
    20     9    10   am
    21    10    11    2
    22    10    12    1
    23    12    26    1
    24    26    27    1
    25    27    28    1
    26    27    29    2
    27    16    17   ar
    28    17    18   ar
    29    18    13   ar
    30    12     1    1
    31     8     3   ar
@<TRIPOS>MOLECULE
*****
 29 31 0 0 0
SMALL
GASTEIGER

@<TRIPOS>ATOM
      1 C         139.6107  140.7518  163.9511 C.3     1  UNL1        0.1232
      2 S         140.3176  139.7258  163.1160 S.3     1  UNL1       -0.1046
      3 C         140.4821  139.6849  161.6255 C.ar    1  UNL1        0.0393
      4 C         141.2618  138.4787  161.1931 C.ar    1  UNL1        0.0074
      5 C         141.5397  138.2476  159.7374 C.ar    1  UNL1        0.0006
      6 C         141.0378  139.2227  158.7140 C.ar    1  UNL1        0.0013
      7 C         140.2581  140.4289  159.1464 C.ar    1  UNL1        0.0154
      8 C         139.9803  140.6600  160.6022 C.ar    1  UNL1        0.0596
      9 N         139.1900  141.9168  160.8165 N.am    1  UNL1       -0.2538
     10 C         138.7063  142.5090  162.1071 C.2     1  UNL1        0.2709
     11 O         137.9333  143.7887  161.9867 O.2     1  UNL1       -0.2706
     12 C         138.8936  141.9904  163.5021 C.3     1  UNL1        0.2585
     13 C         139.6456  140.0169  168.3906 C.ar    1  UNL1        0.1387
     14 C         138.5813  139.3952  167.5358 C.ar    1  UNL1        0.0366
     15 C         138.5695  139.6402  166.0560 C.ar    1  UNL1       -0.0002
     16 C         139.6223  140.5068  165.4309 C.ar    1  UNL1       -0.0080
     17 C         140.6867  141.1285  166.2857 C.ar    1  UNL1       -0.0002
     18 C         140.6984  140.8835  167.7655 C.ar    1  UNL1        0.0366
     19 C         140.5778  140.5606  170.7539 C.3     1  UNL1        0.2525
     20 O         139.6573  139.7719  169.8703 O.3     1  UNL1       -0.4714
     21 C         138.8366  142.6829  159.5762 C.3     1  UNL1        0.1156
     22 C         139.8008  143.6844  159.0129 C.3     1  UNL1        0.0943
     23 N         140.8753  144.2636  159.8847 N.3     1  UNL1       -0.2688
     24 C         140.5885  145.4723  160.7254 C.3     1  UNL1        0.0897
     25 C         142.2363  143.6341  159.9159 C.3     1  UNL1        0.0897
     26 O         138.2830  142.8203  164.5923 O.3     1  UNL1       -0.4415
     27 C         138.9739  144.0656  165.0632 C.2     1  UNL1        0.3179
     28 C         138.2258  145.0733  165.8847 C.3     1  UNL1        0.1212
     29 O         140.4129  144.3033  164.7126 O.2     1  UNL1       -0.2501
@<TRIPOS>BOND
     1    19    20    1
     2    20    13    1
     3    13    14   ar
     4    14    15   ar
     5    15    16   ar
     6    16     1    1
     7     1     2    1
     8     2     3    1
     9     3     4   ar
    10     4     5   ar
    11     5     6   ar
    12     6     7   ar
    13     7     8   ar
    14     8     9    1
    15     9    21    1
    16    21    22    1
    17    22    23    1
    18    23    24    1
    19    23    25    1
    20     9    10   am
    21    10    11    2
    22    10    12    1
    23    12    26    1
    24    26    27    1
    25    27    28    1
    26    27    29    2
    27    16    17   ar
    28    17    18   ar
    29    18    13   ar
    30    12     1    1
    31     8     3   ar
@<TRIPOS>MOLECULE
*****
 29 31 0 0 0
SMALL
GASTEIGER

@<TRIPOS>ATOM
      1 C         140.8397  142.1217  162.5478 C.3     1  UNL1        0.1232
      2 S         142.2201  141.5605  162.7203 S.3     1  UNL1       -0.1046
      3 C         142.7112  140.5842  163.7477 C.ar    1  UNL1        0.0393
      4 C         144.1696  140.2842  163.5656 C.ar    1  UNL1        0.0074
      5 C         144.8599  139.3279  164.4923 C.ar    1  UNL1        0.0006
      6 C         144.0919  138.6714  165.6010 C.ar    1  UNL1        0.0013
      7 C         142.6336  138.9714  165.7831 C.ar    1  UNL1        0.0154
      8 C         141.9432  139.9277  164.8564 C.ar    1  UNL1        0.0596
      9 N         140.4944  140.0856  165.2115 N.am    1  UNL1       -0.2538
     10 C         139.4558  140.9388  164.5457 C.2     1  UNL1        0.2709
     11 O         138.0819  140.8778  165.1445 O.2     1  UNL1       -0.2706
     12 C         139.6095  141.8449  163.3602 C.3     1  UNL1        0.2585
     13 C         140.3206  145.0180  159.1432 C.ar    1  UNL1        0.1387
     14 C         139.9137  143.5839  158.9765 C.ar    1  UNL1        0.0366
     15 C         140.0867  142.6184  160.1114 C.ar    1  UNL1       -0.0002
     16 C         140.6667  143.0871  161.4130 C.ar    1  UNL1       -0.0080
     17 C         141.0736  144.5212  161.5796 C.ar    1  UNL1       -0.0002
     18 C         140.9006  145.4867  160.4448 C.ar    1  UNL1        0.0366
     19 C         141.0475  145.9026  156.8110 C.3     1  UNL1        0.2525
     20 O         140.1476  145.9834  158.0083 O.3     1  UNL1       -0.4714
     21 C         140.0217  139.2842  166.3881 C.3     1  UNL1        0.1156
     22 C         139.7152  139.9685  167.6873 C.3     1  UNL1        0.0943
     23 N         140.7368  140.8646  168.3223 N.3     1  UNL1       -0.2688
     24 C         140.7216  142.3376  168.0396 C.3     1  UNL1        0.0897
     25 C         141.7735  140.2877  169.2400 C.3     1  UNL1        0.0897
     26 O         138.3689  142.5703  162.9303 O.3     1  UNL1       -0.4415
     27 C         138.1241  143.9762  163.3921 C.2     1  UNL1        0.3179
     28 C         138.2890  144.3293  164.8406 C.3     1  UNL1        0.1212
     29 O         137.7142  145.0291  162.4055 O.2     1  UNL1       -0.2501
@<TRIPOS>BOND
     1    19    20    1
     2    20    13    1
     3    13    14   ar
     4    14    15   ar
     5    15    16   ar
     6    16     1    1
     7     1     2    1
     8     2     3    1
     9     3     4   ar
    10     4     5   ar
    11     5     6   ar
    12     6     7   ar
    13     7     8   ar
    14     8     9    1
    15     9    21    1
    16    21    22    1
    17    22    23    1
    18    23    24    1
    19    23    25    1
    20     9    10   am
    21    10    11    2
    22    10    12    1
    23    12    26    1
    24    26    27    1
    25    27    28    1
    26    27    29    2
    27    16    17   ar
    28    17    18   ar
    29    18    13   ar
    30    12     1    1
    31     8     3   ar
@<TRIPOS>MOLECULE
*****
 29 31 0 0 0
SMALL
GASTEIGER

@<TRIPOS>ATOM
      1 C         142.3738  142.3298  164.8559 C.3     1  UNL1        0.1232
      2 S         141.4549  143.4321  164.4193 S.3     1  UNL1       -0.1046
      3 C         141.2904  144.0262  163.0518 C.ar    1  UNL1        0.0393
      4 C         140.2582  145.1145  163.0477 C.ar    1  UNL1        0.0074
      5 C         139.9400  145.8414  161.7748 C.ar    1  UNL1        0.0006
      6 C         140.6539  145.4799  160.5061 C.ar    1  UNL1        0.0013
      7 C         141.6860  144.3916  160.5102 C.ar    1  UNL1        0.0154
      8 C         142.0042  143.6647  161.7831 C.ar    1  UNL1        0.0596
      9 N         143.0589  142.6198  161.5686 N.am    1  UNL1       -0.2538
     10 C         143.6602  141.6784  162.5697 C.2     1  UNL1        0.2709
     11 O         144.7045  140.7424  162.0375 O.2     1  UNL1       -0.2706
     12 C         143.3553  141.5494  164.0327 C.3     1  UNL1        0.2585
     13 C         142.1577  141.2173  169.2108 C.ar    1  UNL1        0.1387
     14 C         141.1451  140.6740  168.2468 C.ar    1  UNL1        0.0366
     15 C         141.2170  141.0448  166.7951 C.ar    1  UNL1       -0.0002
     16 C         142.3018  141.9590  166.3075 C.ar    1  UNL1       -0.0080
     17 C         143.3144  142.5023  167.2715 C.ar    1  UNL1       -0.0002
     18 C         143.2425  142.1315  168.7232 C.ar    1  UNL1        0.0366
     19 C         140.7556  140.7677  171.3514 C.3     1  UNL1        0.2525
     20 O         142.0857  140.8465  170.6624 O.3     1  UNL1       -0.4714
     21 C         143.5814  142.5006  160.1676 C.3     1  UNL1        0.1156
     22 C         143.1491  141.3553  159.3007 C.3     1  UNL1        0.0943
     23 N         141.8572  140.6472  159.5828 N.3     1  UNL1       -0.2688
     24 C         140.5607  141.2362  159.1113 C.3     1  UNL1        0.0897
     25 C         141.8618  139.3503  160.3362 C.3     1  UNL1        0.0897
     26 O         144.1350  140.5013  164.7700 O.3     1  UNL1       -0.4415
     27 C         143.6034  139.1022  164.8691 C.2     1  UNL1        0.3179
     28 C         143.6819  138.3605  166.1705 C.3     1  UNL1        0.1212
     29 O         142.9932  138.4448  163.6668 O.2     1  UNL1       -0.2501
@<TRIPOS>BOND
     1    19    20    1
     2    20    13    1
     3    13    14   ar
     4    14    15   ar
     5    15    16   ar
     6    16     1    1
     7     1     2    1
     8     2     3    1
     9     3     4   ar
    10     4     5   ar
    11     5     6   ar
    12     6     7   ar
    13     7     8   ar
    14     8     9    1
    15     9    21    1
    16    21    22    1
    17    22    23    1
    18    23    24    1
    19    23    25    1
    20     9    10   am
    21    10    11    2
    22    10    12    1
    23    12    26    1
    24    26    27    1
    25    27    28    1
    26    27    29    2
    27    16    17   ar
    28    17    18   ar
    29    18    13   ar
    30    12     1    1
    31     8     3   ar
@<TRIPOS>MOLECULE
*****
 29 31 0 0 0
SMALL
GASTEIGER

@<TRIPOS>ATOM
      1 C         140.9198  141.6147  164.5164 C.3     1  UNL1        0.1232
      2 S         140.4246  142.9938  164.1956 S.3     1  UNL1       -0.1046
      3 C         140.4942  143.7330  162.8923 C.ar    1  UNL1        0.0393
      4 C         139.8783  145.0963  163.0018 C.ar    1  UNL1        0.0074
      5 C         139.8444  146.0022  161.8068 C.ar    1  UNL1        0.0006
      6 C         140.4265  145.5448  160.5022 C.ar    1  UNL1        0.0013
      7 C         141.0424  144.1815  160.3926 C.ar    1  UNL1        0.0154
      8 C         141.0762  143.2756  161.5876 C.ar    1  UNL1        0.0596
      9 N         141.7324  141.9660  161.2643 N.am    1  UNL1       -0.2538
     10 C         141.9686  140.7905  162.1655 C.2     1  UNL1        0.2709
     11 O         142.6576  139.6160  161.5363 O.2     1  UNL1       -0.2706
     12 C         141.6070  140.6342  163.6129 C.3     1  UNL1        0.2585
     13 C         140.2563  140.2370  168.7486 C.ar    1  UNL1        0.1387
     14 C         141.3969  141.1574  168.4296 C.ar    1  UNL1        0.0366
     15 C         141.6182  141.6167  167.0189 C.ar    1  UNL1       -0.0002
     16 C         140.6986  141.1555  165.9271 C.ar    1  UNL1       -0.0080
     17 C         139.5580  140.2351  166.2461 C.ar    1  UNL1       -0.0002
     18 C         139.3368  139.7758  167.6568 C.ar    1  UNL1        0.0366
     19 C         140.7209  140.4807  171.2932 C.3     1  UNL1        0.2525
     20 O         140.0351  139.7777  170.1593 O.3     1  UNL1       -0.4714
     21 C         142.2164  141.8116  159.8529 C.3     1  UNL1        0.1156
     22 C         143.6775  141.9480  159.5418 C.3     1  UNL1        0.0943
     23 N         144.1144  142.5951  158.2610 N.3     1  UNL1       -0.2688
     24 C         143.1105  143.2965  157.3947 C.3     1  UNL1        0.0897
     25 C         145.5548  142.5408  157.8466 C.3     1  UNL1        0.0897
     26 O         141.9821  139.3240  164.2396 O.3     1  UNL1       -0.4415
     27 C         143.3187  139.1646  164.9015 C.2     1  UNL1        0.3179
     28 C         143.4302  138.4134  166.1950 C.3     1  UNL1        0.1212
     29 O         144.5438  139.7565  164.2699 O.2     1  UNL1       -0.2501
@<TRIPOS>BOND
     1    19    20    1
     2    20    13    1
     3    13    14   ar
     4    14    15   ar
     5    15    16   ar
     6    16     1    1
     7     1     2    1
     8     2     3    1
     9     3     4   ar
    10     4     5   ar
    11     5     6   ar
    12     6     7   ar
    13     7     8   ar
    14     8     9    1
    15     9    21    1
    16    21    22    1
    17    22    23    1
    18    23    24    1
    19    23    25    1
    20     9    10   am
    21    10    11    2
    22    10    12    1
    23    12    26    1
    24    26    27    1
    25    27    28    1
    26    27    29    2
    27    16    17   ar
    28    17    18   ar
    29    18    13   ar
    30    12     1    1
    31     8     3   ar
@<TRIPOS>MOLECULE
*****
 29 31 0 0 0
SMALL
GASTEIGER

@<TRIPOS>ATOM
      1 C         140.7803  141.4200  164.6432 C.3     1  UNL1        0.1232
      2 S         141.8910  141.9007  163.7572 S.3     1  UNL1       -0.1046
      3 C         141.8616  142.1671  162.2813 C.ar    1  UNL1        0.0393
      4 C         143.1953  142.6390  161.7829 C.ar    1  UNL1        0.0074
      5 C         143.3814  142.9624  160.3300 C.ar    1  UNL1        0.0006
      6 C         142.2338  142.8139  159.3756 C.ar    1  UNL1        0.0013
      7 C         140.9000  142.3420  159.8741 C.ar    1  UNL1        0.0154
      8 C         140.7140  142.0186  161.3269 C.ar    1  UNL1        0.0596
      9 N         139.3124  141.5670  161.6127 N.am    1  UNL1       -0.2538
     10 C         138.7122  141.1524  162.9234 C.2     1  UNL1        0.2709
     11 O         137.2679  140.7500  162.8796 O.2     1  UNL1       -0.2706
     12 C         139.3655  141.0870  164.2721 C.3     1  UNL1        0.2585
     13 C         141.8307  140.9095  168.9890 C.ar    1  UNL1        0.1387
     14 C         141.1126  142.1442  168.5310 C.ar    1  UNL1        0.0366
     15 C         140.7624  142.3145  167.0824 C.ar    1  UNL1       -0.0002
     16 C         141.1304  141.2498  166.0917 C.ar    1  UNL1       -0.0080
     17 C         141.8485  140.0151  166.5497 C.ar    1  UNL1       -0.0002
     18 C         142.1987  139.8449  167.9983 C.ar    1  UNL1        0.0366
     19 C         141.6713  141.7193  171.4525 C.3     1  UNL1        0.2525
     20 O         142.1809  140.7394  170.4375 O.3     1  UNL1       -0.4714
     21 C         138.3888  141.5244  160.4315 C.3     1  UNL1        0.1156
     22 C         138.0244  140.2080  159.8114 C.3     1  UNL1        0.0943
     23 N         139.0260  139.0920  159.7776 N.3     1  UNL1       -0.2688
     24 C         139.1197  138.1333  160.9275 C.3     1  UNL1        0.0897
     25 C         139.9339  138.9346  158.5941 C.3     1  UNL1        0.0897
     26 O         138.4881  140.6278  165.3987 O.3     1  UNL1       -0.4415
     27 C         138.3249  139.1621  165.6728 C.2     1  UNL1        0.3179
     28 C         139.0663  138.1567  164.8424 C.3     1  UNL1        0.1212
     29 O         137.4202  138.7018  166.7773 O.2     1  UNL1       -0.2501
@<TRIPOS>BOND
     1    19    20    1
     2    20    13    1
     3    13    14   ar
     4    14    15   ar
     5    15    16   ar
     6    16     1    1
     7     1     2    1
     8     2     3    1
     9     3     4   ar
    10     4     5   ar
    11     5     6   ar
    12     6     7   ar
    13     7     8   ar
    14     8     9    1
    15     9    21    1
    16    21    22    1
    17    22    23    1
    18    23    24    1
    19    23    25    1
    20     9    10   am
    21    10    11    2
    22    10    12    1
    23    12    26    1
    24    26    27    1
    25    27    28    1
    26    27    29    2
    27    16    17   ar
    28    17    18   ar
    29    18    13   ar
    30    12     1    1
    31     8     3   ar
@<TRIPOS>MOLECULE
*****
 29 31 0 0 0
SMALL
GASTEIGER

@<TRIPOS>ATOM
      1 C         141.4677  141.7492  164.4299 C.3     1  UNL1        0.1232
      2 S         141.1311  142.9663  163.6204 S.3     1  UNL1       -0.1046
      3 C         140.8632  143.0656  162.1478 C.ar    1  UNL1        0.0393
      4 C         140.5634  144.4774  161.7393 C.ar    1  UNL1        0.0074
      5 C         140.2662  144.7958  160.3040 C.ar    1  UNL1        0.0006
      6 C         140.2688  143.7023  159.2772 C.ar    1  UNL1        0.0013
      7 C         140.5686  142.2906  159.6857 C.ar    1  UNL1        0.0154
      8 C         140.8658  141.9722  161.1210 C.ar    1  UNL1        0.0596
      9 N         141.1369  140.5094  161.3132 N.am    1  UNL1       -0.2538
     10 C         141.4724  139.7788  162.5795 C.2     1  UNL1        0.2709
     11 O         141.6893  138.3012  162.4404 O.2     1  UNL1       -0.2706
     12 C         141.6196  140.3306  163.9666 C.3     1  UNL1        0.2585
     13 C         142.1064  142.4453  168.8295 C.ar    1  UNL1        0.1387
     14 C         143.2792  142.4306  167.8945 C.ar    1  UNL1        0.0366
     15 C         143.0664  142.1985  166.4279 C.ar    1  UNL1       -0.0002
     16 C         141.6806  141.9812  165.8964 C.ar    1  UNL1       -0.0080
     17 C         140.5078  141.9960  166.8314 C.ar    1  UNL1       -0.0002
     18 C         140.7206  142.2280  168.2980 C.ar    1  UNL1        0.0366
     19 C         141.6515  141.7863  171.3012 C.3     1  UNL1        0.2525
     20 O         142.3193  142.6774  170.2960 O.3     1  UNL1       -0.4714
     21 C         141.0627  139.6657  160.0752 C.3     1  UNL1        0.1156
     22 C         139.9353  138.6923  159.8973 C.3     1  UNL1        0.0943
     23 N         138.5977  138.9729  160.5154 N.3     1  UNL1       -0.2688
     24 C         138.1583  138.2105  161.7303 C.3     1  UNL1        0.0897
     25 C         137.6996  140.0156  159.9189 C.3     1  UNL1        0.0897
     26 O         141.9643  139.3316  165.0311 O.3     1  UNL1       -0.4415
     27 C         143.3934  138.9325  165.2506 C.2     1  UNL1        0.3179
     28 C         143.7681  138.1161  166.4519 C.3     1  UNL1        0.1212
     29 O         144.4479  139.3497  164.2688 O.2     1  UNL1       -0.2501
@<TRIPOS>BOND
     1    19    20    1
     2    20    13    1
     3    13    14   ar
     4    14    15   ar
     5    15    16   ar
     6    16     1    1
     7     1     2    1
     8     2     3    1
     9     3     4   ar
    10     4     5   ar
    11     5     6   ar
    12     6     7   ar
    13     7     8   ar
    14     8     9    1
    15     9    21    1
    16    21    22    1
    17    22    23    1
    18    23    24    1
    19    23    25    1
    20     9    10   am
    21    10    11    2
    22    10    12    1
    23    12    26    1
    24    26    27    1
    25    27    28    1
    26    27    29    2
    27    16    17   ar
    28    17    18   ar
    29    18    13   ar
    30    12     1    1
    31     8     3   ar
