@<TRIPOS>MOLECULE
*****
 36 40 0 0 0
SMALL
GASTEIGER

@<TRIPOS>ATOM
      1 N         137.5800  142.5038  164.4846 N.pl3   1  UNL1       -0.3425
      2 C         138.0868  142.1577  163.1159 C.ar    1  UNL1        0.1300
      3 N         137.6702  142.9790  161.9319 N.ar    1  UNL1       -0.2094
      4 C         138.1771  142.6329  160.5633 C.ar    1  UNL1        0.2014
      5 N         139.1006  141.4655  160.3785 N.ar    1  UNL1       -0.2061
      6 C         139.5173  140.6442  161.5625 C.ar    1  UNL1        0.1521
      7 C         139.0104  140.9903  162.9312 C.ar    1  UNL1        0.0668
      8 C         139.5897  140.0052  163.9028 C.ar    1  UNL1        0.0196
      9 C         140.4547  139.0503  163.1346 C.ar    1  UNL1        0.0812
     10 N         140.4099  139.4452  161.6883 N.ar    1  UNL1       -0.2902
     11 H         136.9738  143.2700  164.6058 H       1  UNL1        0.1437
     12 H         137.8535  141.9647  165.2617 H       1  UNL1        0.1437
     13 C         139.3468  139.9796  165.3828 C.2     1  UNL1       -0.0146
     14 C         138.3046  139.0658  165.9560 C.2     1  UNL1       -0.0038
     15 C         138.0616  139.0401  167.4360 C.2     1  UNL1        0.0009
     16 C         138.8609  139.9284  168.3428 C.2     1  UNL1        0.0154
     17 C         138.8443  140.1196  169.8304 C.2     1  UNL1        0.0218
     18 C         139.8762  141.1517  170.1766 C.2     1  UNL1        0.0985
     19 N         140.5307  141.5983  168.9029 N.2     1  UNL1       -0.2478
     20 C         139.9031  140.8422  167.7695 C.2     1  UNL1        0.0634
     21 C         140.1461  140.8678  166.2896 C.3     1  UNL1        0.0721
     22 C         141.1311  138.7613  160.5648 C.ar    1  UNL1        0.0656
     23 C         142.4032  138.0137  160.8352 C.ar    1  UNL1        0.0207
     24 C         143.1244  137.3298  159.7117 C.ar    1  UNL1        0.0384
     25 C         142.5735  137.3933  158.3180 C.ar    1  UNL1        0.1387
     26 C         141.3015  138.1408  158.0477 C.ar    1  UNL1        0.0384
     27 C         140.5803  138.8247  159.1711 C.ar    1  UNL1        0.0207
     28 O         143.2947  136.7094  157.1946 O.3     1  UNL1       -0.4740
     29 C         142.6632  135.5393  156.5002 C.3     1  UNL1        0.2224
     30 C         143.2249  134.1616  156.6907 C.3     1  UNL1        0.1166
     31 N         143.7779  133.7548  158.0244 N.3     1  UNL1       -0.2923
     32 H         143.0141  133.3156  158.5383 H       1  UNL1        0.1234
     33 C         144.9452  132.8156  158.0975 C.3     1  UNL1        0.1008
     34 C         144.7688  131.3705  157.7364 C.3     1  UNL1        0.1542
     35 O         143.4331  130.7110  157.9128 O.3     1  UNL1       -0.3805
     36 H         143.2148  130.6702  158.8571 H       1  UNL1        0.2105
@<TRIPOS>BOND
     1     1     2    1
     2     2     3   ar
     3     3     4   ar
     4     4     5   ar
     5     5     6   ar
     6     6     7   ar
     7     7     8   ar
     8     8    13    1
     9    13    14    2
    10    14    15    1
    11    15    16    2
    12    16    17    1
    13    17    18    2
    14    18    19    1
    15    19    20    2
    16    20    21    1
    17     8     9   ar
    18     9    10   ar
    19    10    22    1
    20    22    23   ar
    21    23    24   ar
    22    24    25   ar
    23    25    28    1
    24    28    29    1
    25    29    30    1
    26    30    31    1
    27    31    33    1
    28    33    34    1
    29    34    35    1
    30    25    26   ar
    31    26    27   ar
    32     7     2   ar
    33    21    13    1
    34    27    22   ar
    35    10     6   ar
    36    20    16    1
    37     1    11    1
    38     1    12    1
    39    31    32    1
    40    35    36    1
@<TRIPOS>MOLECULE
*****
 36 40 0 0 0
SMALL
GASTEIGER

@<TRIPOS>ATOM
      1 N         138.7267  141.9163  159.3557 N.pl3   1  UNL1       -0.3425
      2 C         138.6228  142.1146  160.8389 C.ar    1  UNL1        0.1300
      3 N         137.8068  143.2466  161.3889 N.ar    1  UNL1       -0.2094
      4 C         137.7030  143.4449  162.8721 C.ar    1  UNL1        0.2014
      5 N         138.4152  142.5112  163.8053 N.ar    1  UNL1       -0.2061
      6 C         139.2312  141.3791  163.2553 C.ar    1  UNL1        0.1521
      7 C         139.3350  141.1808  161.7721 C.ar    1  UNL1        0.0668
      8 C         140.2062  139.9852  161.5242 C.ar    1  UNL1        0.0196
      9 C         140.6409  139.4445  162.8541 C.ar    1  UNL1        0.0812
     10 N         140.0382  140.3060  163.9240 N.ar    1  UNL1       -0.2902
     11 H         138.2593  142.5291  158.7432 H       1  UNL1        0.1437
     12 H         139.2623  141.1733  158.9947 H       1  UNL1        0.1437
     13 C         140.5776  139.4280  160.1819 C.2     1  UNL1       -0.0146
     14 C         139.5769  138.6332  159.3967 C.2     1  UNL1       -0.0038
     15 C         139.9483  138.0761  158.0545 C.2     1  UNL1        0.0009
     16 C         141.3205  138.3138  157.4973 C.2     1  UNL1        0.0154
     17 C         141.9687  137.8928  156.2118 C.2     1  UNL1        0.0218
     18 C         143.3701  138.4275  156.2024 C.2     1  UNL1        0.0985
     19 N         143.5881  139.1789  157.4822 N.2     1  UNL1       -0.2478
     20 C         142.3214  139.1087  158.2825 C.2     1  UNL1        0.0634
     21 C         141.9500  139.6658  159.6247 C.3     1  UNL1        0.0721
     22 C         140.2121  140.1261  165.4030 C.ar    1  UNL1        0.0656
     23 C         141.5890  140.0858  165.9969 C.ar    1  UNL1        0.0207
     24 C         141.7629  139.9058  167.4759 C.ar    1  UNL1        0.0384
     25 C         140.5600  139.7661  168.3610 C.ar    1  UNL1        0.1387
     26 C         139.1831  139.8064  167.7671 C.ar    1  UNL1        0.0384
     27 C         139.0093  139.9864  166.2881 C.ar    1  UNL1        0.0207
     28 O         140.7338  139.5862  169.8399 O.3     1  UNL1       -0.4740
     29 C         141.9892  140.0598  170.5106 C.3     1  UNL1        0.2224
     30 C         141.9230  141.1404  171.5489 C.3     1  UNL1        0.1166
     31 N         142.2845  142.5507  171.1879 N.3     1  UNL1       -0.2923
     32 H         143.3021  142.6116  171.2214 H       1  UNL1        0.1234
     33 C         141.8600  143.1189  169.8661 C.3     1  UNL1        0.1008
     34 C         140.4357  143.5381  169.6527 C.3     1  UNL1        0.1542
     35 O         139.5262  143.7311  170.8299 O.3     1  UNL1       -0.3805
     36 H         139.3804  142.8785  171.2690 H       1  UNL1        0.2105
@<TRIPOS>BOND
     1     1     2    1
     2     2     3   ar
     3     3     4   ar
     4     4     5   ar
     5     5     6   ar
     6     6     7   ar
     7     7     8   ar
     8     8    13    1
     9    13    14    2
    10    14    15    1
    11    15    16    2
    12    16    17    1
    13    17    18    2
    14    18    19    1
    15    19    20    2
    16    20    21    1
    17     8     9   ar
    18     9    10   ar
    19    10    22    1
    20    22    23   ar
    21    23    24   ar
    22    24    25   ar
    23    25    28    1
    24    28    29    1
    25    29    30    1
    26    30    31    1
    27    31    33    1
    28    33    34    1
    29    34    35    1
    30    25    26   ar
    31    26    27   ar
    32     7     2   ar
    33    21    13    1
    34    27    22   ar
    35    10     6   ar
    36    20    16    1
    37     1    11    1
    38     1    12    1
    39    31    32    1
    40    35    36    1
@<TRIPOS>MOLECULE
*****
 36 40 0 0 0
SMALL
GASTEIGER

@<TRIPOS>ATOM
      1 N         143.8211  141.5116  161.5029 N.pl3   1  UNL1       -0.3425
      2 C         143.5760  140.8742  162.8385 C.ar    1  UNL1        0.1300
      3 N         144.5819  139.9193  163.4096 N.ar    1  UNL1       -0.2094
      4 C         144.3368  139.2818  164.7451 C.ar    1  UNL1        0.2014
      5 N         143.0859  139.5992  165.5095 N.ar    1  UNL1       -0.2061
      6 C         142.0800  140.5541  164.9383 C.ar    1  UNL1        0.1521
      7 C         142.3251  141.1916  163.6028 C.ar    1  UNL1        0.0668
      8 C         141.1615  142.0872  163.2962 C.ar    1  UNL1        0.0196
      9 C         140.1973  142.0033  164.4421 C.ar    1  UNL1        0.0812
     10 N         140.7650  141.0558  165.4570 N.ar    1  UNL1       -0.2902
     11 H         144.6422  141.3033  161.0013 H       1  UNL1        0.1437
     12 H         143.1609  142.1384  161.1281 H       1  UNL1        0.1437
     13 C         140.9920  142.9205  162.0605 C.2     1  UNL1       -0.0146
     14 C         141.4845  144.3371  162.0376 C.2     1  UNL1       -0.0038
     15 C         141.3149  145.1703  160.8019 C.2     1  UNL1        0.0009
     16 C         140.6528  144.5870  159.5890 C.2     1  UNL1        0.0154
     17 C         140.3484  145.1619  158.2374 C.2     1  UNL1        0.0218
     18 C         139.6676  144.1006  157.4249 C.2     1  UNL1        0.0985
     19 N         139.5514  142.8698  158.2743 N.2     1  UNL1       -0.2478
     20 C         140.1602  143.1703  159.6117 C.2     1  UNL1        0.0634
     21 C         140.3298  142.3371  160.8474 C.3     1  UNL1        0.0721
     22 C         140.1292  140.6766  166.7616 C.ar    1  UNL1        0.0656
     23 C         140.6302  141.2758  168.0423 C.ar    1  UNL1        0.0207
     24 C         139.9945  140.8965  169.3469 C.ar    1  UNL1        0.0384
     25 C         138.8578  139.9181  169.3709 C.ar    1  UNL1        0.1387
     26 C         138.3569  139.3189  168.0903 C.ar    1  UNL1        0.0384
     27 C         138.9926  139.6982  166.7857 C.ar    1  UNL1        0.0207
     28 O         138.2221  139.5388  170.6755 O.3     1  UNL1       -0.4740
     29 C         136.7348  139.3642  170.7623 C.3     1  UNL1        0.2224
     30 C         136.1560  138.2755  171.6165 C.3     1  UNL1        0.1166
     31 N         137.0570  137.2471  172.2334 N.3     1  UNL1       -0.2923
     32 H         137.7046  137.7493  172.8407 H       1  UNL1        0.1234
     33 C         136.4739  136.1321  173.0501 C.3     1  UNL1        0.1008
     34 C         135.4778  136.4351  174.1299 C.3     1  UNL1        0.1542
     35 O         134.0158  136.5084  173.8025 O.3     1  UNL1       -0.3805
     36 H         133.8534  137.2633  173.2154 H       1  UNL1        0.2105
@<TRIPOS>BOND
     1     1     2    1
     2     2     3   ar
     3     3     4   ar
     4     4     5   ar
     5     5     6   ar
     6     6     7   ar
     7     7     8   ar
     8     8    13    1
     9    13    14    2
    10    14    15    1
    11    15    16    2
    12    16    17    1
    13    17    18    2
    14    18    19    1
    15    19    20    2
    16    20    21    1
    17     8     9   ar
    18     9    10   ar
    19    10    22    1
    20    22    23   ar
    21    23    24   ar
    22    24    25   ar
    23    25    28    1
    24    28    29    1
    25    29    30    1
    26    30    31    1
    27    31    33    1
    28    33    34    1
    29    34    35    1
    30    25    26   ar
    31    26    27   ar
    32     7     2   ar
    33    21    13    1
    34    27    22   ar
    35    10     6   ar
    36    20    16    1
    37     1    11    1
    38     1    12    1
    39    31    32    1
    40    35    36    1
@<TRIPOS>MOLECULE
*****
 36 40 0 0 0
SMALL
GASTEIGER

@<TRIPOS>ATOM
      1 N         139.2599  137.7179  165.0990 N.pl3   1  UNL1       -0.3425
      2 C         139.1377  138.4202  163.7791 C.ar    1  UNL1        0.1300
      3 N         138.4762  137.7322  162.6219 N.ar    1  UNL1       -0.2094
      4 C         138.3540  138.4345  161.3021 C.ar    1  UNL1        0.2014
      5 N         138.8933  139.8247  161.1395 N.ar    1  UNL1       -0.2061
      6 C         139.5547  140.5126  162.2967 C.ar    1  UNL1        0.1521
      7 C         139.6769  139.8104  163.6165 C.ar    1  UNL1        0.0668
      8 C         140.3739  140.7345  164.5705 C.ar    1  UNL1        0.0196
      9 C         140.6826  142.0079  163.8403 C.ar    1  UNL1        0.0812
     10 N         140.1762  141.8708  162.4351 N.ar    1  UNL1       -0.2902
     11 H         138.9059  136.8054  165.2057 H       1  UNL1        0.1437
     12 H         139.6940  138.1695  165.8585 H       1  UNL1        0.1437
     13 C         140.7044  140.4374  166.0032 C.2     1  UNL1       -0.0146
     14 C         142.0968  140.0287  166.3826 C.2     1  UNL1       -0.0038
     15 C         142.4272  139.7316  167.8153 C.2     1  UNL1        0.0009
     16 C         141.3651  139.8432  168.8686 C.2     1  UNL1        0.0154
     17 C         141.3936  139.6150  170.3508 C.2     1  UNL1        0.0218
     18 C         140.0188  139.8826  170.8876 C.2     1  UNL1        0.0985
     19 N         139.1406  140.2762  169.7370 N.2     1  UNL1       -0.2478
     20 C         139.9726  140.2518  168.4892 C.2     1  UNL1        0.0634
     21 C         139.6422  140.5490  167.0566 C.3     1  UNL1        0.0721
     22 C         140.2742  142.9094  161.3573 C.ar    1  UNL1        0.0656
     23 C         140.4700  142.4927  159.9296 C.ar    1  UNL1        0.0207
     24 C         140.5680  143.5313  158.8518 C.ar    1  UNL1        0.0384
     25 C         140.4702  144.9867  159.2016 C.ar    1  UNL1        0.1387
     26 C         140.2744  145.4034  160.6292 C.ar    1  UNL1        0.0384
     27 C         140.1764  144.3647  161.7070 C.ar    1  UNL1        0.0207
     28 O         140.5682  146.0253  158.1238 O.3     1  UNL1       -0.4740
     29 C         141.5452  145.8494  156.9994 C.3     1  UNL1        0.2224
     30 C         141.1003  146.0497  155.5809 C.3     1  UNL1        0.1166
     31 N         139.7175  145.6448  155.1643 N.3     1  UNL1       -0.2923
     32 H         139.4576  144.8461  155.7430 H       1  UNL1        0.1234
     33 C         138.5890  146.6291  155.2528 C.3     1  UNL1        0.1008
     34 C         138.8499  148.0285  155.7256 C.3     1  UNL1        0.1542
     35 O         138.8494  148.3365  157.1937 O.3     1  UNL1       -0.3805
     36 H         137.9566  148.2083  157.5506 H       1  UNL1        0.2105
@<TRIPOS>BOND
     1     1     2    1
     2     2     3   ar
     3     3     4   ar
     4     4     5   ar
     5     5     6   ar
     6     6     7   ar
     7     7     8   ar
     8     8    13    1
     9    13    14    2
    10    14    15    1
    11    15    16    2
    12    16    17    1
    13    17    18    2
    14    18    19    1
    15    19    20    2
    16    20    21    1
    17     8     9   ar
    18     9    10   ar
    19    10    22    1
    20    22    23   ar
    21    23    24   ar
    22    24    25   ar
    23    25    28    1
    24    28    29    1
    25    29    30    1
    26    30    31    1
    27    31    33    1
    28    33    34    1
    29    34    35    1
    30    25    26   ar
    31    26    27   ar
    32     7     2   ar
    33    21    13    1
    34    27    22   ar
    35    10     6   ar
    36    20    16    1
    37     1    11    1
    38     1    12    1
    39    31    32    1
    40    35    36    1
@<TRIPOS>MOLECULE
*****
 36 40 0 0 0
SMALL
GASTEIGER

@<TRIPOS>ATOM
      1 N         144.5266  142.5439  160.2451 N.pl3   1  UNL1       -0.3425
      2 C         144.3891  142.1079  161.6737 C.ar    1  UNL1        0.1300
      3 N         145.6122  141.7909  162.4821 N.ar    1  UNL1       -0.2094
      4 C         145.4747  141.3548  163.9107 C.ar    1  UNL1        0.2014
      5 N         144.1142  141.2358  164.5310 N.ar    1  UNL1       -0.2061
      6 C         142.8911  141.5529  163.7226 C.ar    1  UNL1        0.1521
      7 C         143.0286  141.9889  162.2940 C.ar    1  UNL1        0.0668
      8 C         141.6524  142.2324  161.7492 C.ar    1  UNL1        0.0196
      9 C         140.6644  141.9468  162.8411 C.ar    1  UNL1        0.0812
     10 N         141.4300  141.5269  164.0607 N.ar    1  UNL1       -0.2902
     11 H         145.4196  142.6221  159.8380 H       1  UNL1        0.1437
     12 H         143.7238  142.7520  159.7145 H       1  UNL1        0.1437
     13 C         141.3222  142.6824  160.3569 C.2     1  UNL1       -0.0146
     14 C         141.2185  141.6772  159.2485 C.2     1  UNL1       -0.0038
     15 C         140.8883  142.1272  157.8562 C.2     1  UNL1        0.0009
     16 C         140.6618  143.5826  157.5723 C.2     1  UNL1        0.0154
     17 C         140.3241  144.3182  156.3095 C.2     1  UNL1        0.0218
     18 C         140.2190  145.7781  156.6374 C.2     1  UNL1        0.0985
     19 N         140.4918  145.9448  158.1029 N.2     1  UNL1       -0.2478
     20 C         140.7654  144.5879  158.6807 C.2     1  UNL1        0.0634
     21 C         141.0956  144.1379  160.0730 C.3     1  UNL1        0.0721
     22 C         140.8383  141.1475  165.3859 C.ar    1  UNL1        0.0656
     23 C         140.8927  142.1104  166.5348 C.ar    1  UNL1        0.0207
     24 C         140.3010  141.7310  167.8600 C.ar    1  UNL1        0.0384
     25 C         139.6550  140.3888  168.0362 C.ar    1  UNL1        0.1387
     26 C         139.6006  139.4260  166.8873 C.ar    1  UNL1        0.0384
     27 C         140.1923  139.8054  165.5622 C.ar    1  UNL1        0.0207
     28 O         139.0633  140.0095  169.3614 O.3     1  UNL1       -0.4740
     29 C         139.9302  139.9656  170.5847 C.3     1  UNL1        0.2224
     30 C         141.3880  139.6353  170.4595 C.3     1  UNL1        0.1166
     31 N         142.4166  140.5337  171.0798 N.3     1  UNL1       -0.2923
     32 H         143.2868  140.3811  170.5700 H       1  UNL1        0.1234
     33 C         142.1919  142.0163  171.1189 C.3     1  UNL1        0.1008
     34 C         143.0144  142.9225  170.2517 C.3     1  UNL1        0.1542
     35 O         144.5033  142.7516  170.1880 O.3     1  UNL1       -0.3805
     36 H         144.8900  142.9597  171.0529 H       1  UNL1        0.2105
@<TRIPOS>BOND
     1     1     2    1
     2     2     3   ar
     3     3     4   ar
     4     4     5   ar
     5     5     6   ar
     6     6     7   ar
     7     7     8   ar
     8     8    13    1
     9    13    14    2
    10    14    15    1
    11    15    16    2
    12    16    17    1
    13    17    18    2
    14    18    19    1
    15    19    20    2
    16    20    21    1
    17     8     9   ar
    18     9    10   ar
    19    10    22    1
    20    22    23   ar
    21    23    24   ar
    22    24    25   ar
    23    25    28    1
    24    28    29    1
    25    29    30    1
    26    30    31    1
    27    31    33    1
    28    33    34    1
    29    34    35    1
    30    25    26   ar
    31    26    27   ar
    32     7     2   ar
    33    21    13    1
    34    27    22   ar
    35    10     6   ar
    36    20    16    1
    37     1    11    1
    38     1    12    1
    39    31    32    1
    40    35    36    1
@<TRIPOS>MOLECULE
*****
 36 40 0 0 0
SMALL
GASTEIGER

@<TRIPOS>ATOM
      1 N         139.6057  143.8765  165.7687 N.pl3   1  UNL1       -0.3425
      2 C         139.7742  143.5364  164.3175 C.ar    1  UNL1        0.1300
      3 N         139.0819  144.3566  163.2697 N.ar    1  UNL1       -0.2094
      4 C         139.2504  144.0165  161.8185 C.ar    1  UNL1        0.2014
      5 N         140.1112  142.8562  161.4151 N.ar    1  UNL1       -0.2061
      6 C         140.8034  142.0360  162.4629 C.ar    1  UNL1        0.1521
      7 C         140.6349  142.3761  163.9141 C.ar    1  UNL1        0.0668
      8 C         141.4357  141.3937  164.7164 C.ar    1  UNL1        0.0196
      9 C         142.0990  140.4464  163.7611 C.ar    1  UNL1        0.0812
     10 N         141.7083  140.8434  162.3684 N.ar    1  UNL1       -0.2902
     11 H         139.0407  144.6381  166.0334 H       1  UNL1        0.1437
     12 H         140.0600  143.3382  166.4564 H       1  UNL1        0.1437
     13 C         141.5525  141.3638  166.2116 C.2     1  UNL1       -0.0146
     14 C         142.6466  142.1300  166.8939 C.2     1  UNL1       -0.0038
     15 C         142.7634  142.1001  168.3890 C.2     1  UNL1        0.0009
     16 C         141.7860  141.3040  169.2019 C.2     1  UNL1        0.0154
     17 C         141.6516  141.0872  170.6800 C.2     1  UNL1        0.0218
     18 C         140.4743  140.1870  170.9114 C.2     1  UNL1        0.0985
     19 N         139.8811  139.8474  169.5761 N.2     1  UNL1       -0.2478
     20 C         140.6918  140.5377  168.5197 C.2     1  UNL1        0.0634
     21 C         140.5750  140.5676  167.0245 C.3     1  UNL1        0.0721
     22 C         142.1456  140.1666  161.1032 C.ar    1  UNL1        0.0656
     23 C         142.6392  140.9849  159.9469 C.ar    1  UNL1        0.0207
     24 C         143.0765  140.3081  158.6817 C.ar    1  UNL1        0.0384
     25 C         143.0203  138.8131  158.5727 C.ar    1  UNL1        0.1387
     26 C         142.5268  137.9950  159.7290 C.ar    1  UNL1        0.0384
     27 C         142.0895  138.6717  160.9942 C.ar    1  UNL1        0.0207
     28 O         143.4576  138.1364  157.3075 O.3     1  UNL1       -0.4740
     29 C         142.8247  136.8414  156.8924 C.3     1  UNL1        0.2224
     30 C         143.6500  135.7851  156.2191 C.3     1  UNL1        0.1166
     31 N         143.3729  134.3349  156.4835 N.3     1  UNL1       -0.2923
     32 H         143.8179  133.8083  155.7318 H       1  UNL1        0.1234
     33 C         143.8172  133.7092  157.7723 C.3     1  UNL1        0.1008
     34 C         144.8772  132.6480  157.7645 C.3     1  UNL1        0.1542
     35 O         145.5964  132.3156  156.4908 O.3     1  UNL1       -0.3805
     36 H         144.9719  131.9260  155.8591 H       1  UNL1        0.2105
@<TRIPOS>BOND
     1     1     2    1
     2     2     3   ar
     3     3     4   ar
     4     4     5   ar
     5     5     6   ar
     6     6     7   ar
     7     7     8   ar
     8     8    13    1
     9    13    14    2
    10    14    15    1
    11    15    16    2
    12    16    17    1
    13    17    18    2
    14    18    19    1
    15    19    20    2
    16    20    21    1
    17     8     9   ar
    18     9    10   ar
    19    10    22    1
    20    22    23   ar
    21    23    24   ar
    22    24    25   ar
    23    25    28    1
    24    28    29    1
    25    29    30    1
    26    30    31    1
    27    31    33    1
    28    33    34    1
    29    34    35    1
    30    25    26   ar
    31    26    27   ar
    32     7     2   ar
    33    21    13    1
    34    27    22   ar
    35    10     6   ar
    36    20    16    1
    37     1    11    1
    38     1    12    1
    39    31    32    1
    40    35    36    1
@<TRIPOS>MOLECULE
*****
 36 40 0 0 0
SMALL
GASTEIGER

@<TRIPOS>ATOM
      1 N         143.0018  139.5047  165.8681 N.pl3   1  UNL1       -0.3425
      2 C         142.7735  139.5883  164.3880 C.ar    1  UNL1        0.1300
      3 N         143.8159  139.0772  163.4382 N.ar    1  UNL1       -0.2094
      4 C         143.5876  139.1608  161.9581 C.ar    1  UNL1        0.2014
      5 N         142.3167  139.7554  161.4276 N.ar    1  UNL1       -0.2061
      6 C         141.2743  140.2664  162.3774 C.ar    1  UNL1        0.1521
      7 C         141.5026  140.1828  163.8575 C.ar    1  UNL1        0.0668
      8 C         140.3029  140.7641  164.5452 C.ar    1  UNL1        0.0196
      9 C         139.3331  141.2070  163.4900 C.ar    1  UNL1        0.0812
     10 N         139.9334  140.8993  162.1503 N.ar    1  UNL1       -0.2902
     11 H         143.8359  139.1144  166.2162 H       1  UNL1        0.1437
     12 H         142.3176  139.8401  166.4915 H       1  UNL1        0.1437
     13 C         140.1074  140.8819  166.0277 C.2     1  UNL1       -0.0146
     14 C         139.4621  139.7631  166.7904 C.2     1  UNL1       -0.0038
     15 C         139.2666  139.8808  168.2729 C.2     1  UNL1        0.0009
     16 C         139.7164  141.1175  168.9928 C.2     1  UNL1        0.0154
     17 C         139.6566  141.5155  170.4378 C.2     1  UNL1        0.0218
     18 C         140.2649  142.8804  170.5682 C.2     1  UNL1        0.0985
     19 N         140.7006  143.3260  169.2038 N.2     1  UNL1       -0.2478
     20 C         140.3616  142.2365  168.2302 C.2     1  UNL1        0.0634
     21 C         140.5572  142.1187  166.7476 C.3     1  UNL1        0.0721
     22 C         139.3035  141.1761  160.8173 C.ar    1  UNL1        0.0656
     23 C         138.5681  140.0865  160.0946 C.ar    1  UNL1        0.0207
     24 C         137.9382  140.3632  158.7617 C.ar    1  UNL1        0.0384
     25 C         138.0437  141.7294  158.1515 C.ar    1  UNL1        0.1387
     26 C         138.7790  142.8189  158.8742 C.ar    1  UNL1        0.0384
     27 C         139.4089  142.5422  160.2071 C.ar    1  UNL1        0.0207
     28 O         137.4138  142.0062  156.8185 O.3     1  UNL1       -0.4740
     29 C         136.8046  140.8852  156.0298 C.3     1  UNL1        0.2224
     30 C         135.3129  140.7621  155.9305 C.3     1  UNL1        0.1166
     31 N         134.6726  139.4061  155.8984 N.3     1  UNL1       -0.2923
     32 H         135.2150  138.8095  156.5231 H       1  UNL1        0.1234
     33 C         133.2331  139.2469  156.2891 C.3     1  UNL1        0.1008
     34 C         132.8241  139.4012  157.7239 C.3     1  UNL1        0.1542
     35 O         133.7776  139.0277  158.8200 O.3     1  UNL1       -0.3805
     36 H         133.9363  138.0710  158.7984 H       1  UNL1        0.2105
@<TRIPOS>BOND
     1     1     2    1
     2     2     3   ar
     3     3     4   ar
     4     4     5   ar
     5     5     6   ar
     6     6     7   ar
     7     7     8   ar
     8     8    13    1
     9    13    14    2
    10    14    15    1
    11    15    16    2
    12    16    17    1
    13    17    18    2
    14    18    19    1
    15    19    20    2
    16    20    21    1
    17     8     9   ar
    18     9    10   ar
    19    10    22    1
    20    22    23   ar
    21    23    24   ar
    22    24    25   ar
    23    25    28    1
    24    28    29    1
    25    29    30    1
    26    30    31    1
    27    31    33    1
    28    33    34    1
    29    34    35    1
    30    25    26   ar
    31    26    27   ar
    32     7     2   ar
    33    21    13    1
    34    27    22   ar
    35    10     6   ar
    36    20    16    1
    37     1    11    1
    38     1    12    1
    39    31    32    1
    40    35    36    1
@<TRIPOS>MOLECULE
*****
 36 40 0 0 0
SMALL
GASTEIGER

@<TRIPOS>ATOM
      1 N         142.7323  138.7452  165.2264 N.pl3   1  UNL1       -0.3425
      2 C         142.8162  139.3535  163.8579 C.ar    1  UNL1        0.1300
      3 N         143.7926  138.8132  162.8555 N.ar    1  UNL1       -0.2094
      4 C         143.8765  139.4216  161.4870 C.ar    1  UNL1        0.2014
      5 N         142.9841  140.5703  161.1209 N.ar    1  UNL1       -0.2061
      6 C         142.0078  141.1106  162.1233 C.ar    1  UNL1        0.1521
      7 C         141.9239  140.5023  163.4918 C.ar    1  UNL1        0.0668
      8 C         140.8718  141.2417  164.2640 C.ar    1  UNL1        0.0196
      9 C         140.3056  142.3071  163.3728 C.ar    1  UNL1        0.0812
     10 N         141.0076  142.2261  162.0498 N.ar    1  UNL1       -0.2902
     11 H         143.3180  137.9912  165.4667 H       1  UNL1        0.1437
     12 H         142.0915  139.0998  165.8843 H       1  UNL1        0.1437
     13 C         140.4586  140.9645  165.6791 C.2     1  UNL1       -0.0146
     14 C         139.4308  139.9108  165.9676 C.2     1  UNL1       -0.0038
     15 C         139.0176  139.6335  167.3826 C.2     1  UNL1        0.0009
     16 C         139.6322  140.4100  168.5093 C.2     1  UNL1        0.0154
     17 C         139.4252  140.3585  169.9940 C.2     1  UNL1        0.0218
     18 C         140.3251  141.3803  170.6232 C.2     1  UNL1        0.0985
     19 N         141.0883  142.0634  169.5273 N.2     1  UNL1       -0.2478
     20 C         140.6601  141.4637  168.2208 C.2     1  UNL1        0.0634
     21 C         141.0733  141.7410  166.8058 C.3     1  UNL1        0.0721
     22 C         140.7541  143.1061  160.8617 C.ar    1  UNL1        0.0656
     23 C         141.4644  144.4215  160.7375 C.ar    1  UNL1        0.0207
     24 C         141.2108  145.3014  159.5495 C.ar    1  UNL1        0.0384
     25 C         140.2470  144.8660  158.4857 C.ar    1  UNL1        0.1387
     26 C         139.5368  143.5507  158.6100 C.ar    1  UNL1        0.0384
     27 C         139.7904  142.6708  159.7980 C.ar    1  UNL1        0.0207
     28 O         139.9935  145.7460  157.2977 O.3     1  UNL1       -0.4740
     29 C         141.0392  145.8861  156.2314 C.3     1  UNL1        0.2224
     30 C         140.6481  145.8237  154.7846 C.3     1  UNL1        0.1166
     31 N         139.6773  146.8216  154.2263 N.3     1  UNL1       -0.2923
     32 H         138.7450  146.5086  154.4970 H       1  UNL1        0.1234
     33 C         139.7793  148.2664  154.6163 C.3     1  UNL1        0.1008
     34 C         138.7567  148.8697  155.5331 C.3     1  UNL1        0.1542
     35 O         138.6895  148.4393  156.9685 O.3     1  UNL1       -0.3805
     36 H         138.4200  147.5086  157.0147 H       1  UNL1        0.2105
@<TRIPOS>BOND
     1     1     2    1
     2     2     3   ar
     3     3     4   ar
     4     4     5   ar
     5     5     6   ar
     6     6     7   ar
     7     7     8   ar
     8     8    13    1
     9    13    14    2
    10    14    15    1
    11    15    16    2
    12    16    17    1
    13    17    18    2
    14    18    19    1
    15    19    20    2
    16    20    21    1
    17     8     9   ar
    18     9    10   ar
    19    10    22    1
    20    22    23   ar
    21    23    24   ar
    22    24    25   ar
    23    25    28    1
    24    28    29    1
    25    29    30    1
    26    30    31    1
    27    31    33    1
    28    33    34    1
    29    34    35    1
    30    25    26   ar
    31    26    27   ar
    32     7     2   ar
    33    21    13    1
    34    27    22   ar
    35    10     6   ar
    36    20    16    1
    37     1    11    1
    38     1    12    1
    39    31    32    1
    40    35    36    1
@<TRIPOS>MOLECULE
*****
 36 40 0 0 0
SMALL
GASTEIGER

@<TRIPOS>ATOM
      1 N         141.6034  141.9392  158.5113 N.pl3   1  UNL1       -0.3425
      2 C         141.5303  142.3077  159.9635 C.ar    1  UNL1        0.1300
      3 N         141.5961  143.7484  160.3759 N.ar    1  UNL1       -0.2094
      4 C         141.5230  144.1170  161.8280 C.ar    1  UNL1        0.2014
      5 N         141.3841  143.0449  162.8679 N.ar    1  UNL1       -0.2061
      6 C         141.3184  141.6042  162.4555 C.ar    1  UNL1        0.1521
      7 C         141.3915  141.2356  161.0033 C.ar    1  UNL1        0.0668
      8 C         141.3017  139.7420  160.8992 C.ar    1  UNL1        0.0196
      9 C         141.1732  139.1874  162.2869 C.ar    1  UNL1        0.0812
     10 N         141.1834  140.3383  163.2488 N.ar    1  UNL1       -0.2902
     11 H         141.6946  142.6428  157.8289 H       1  UNL1        0.1437
     12 H         141.5603  140.9936  158.2407 H       1  UNL1        0.1437
     13 C         141.3347  138.9431  159.6300 C.2     1  UNL1       -0.0146
     14 C         142.6167  138.3117  159.1744 C.2     1  UNL1       -0.0038
     15 C         142.6497  137.5128  157.9052 C.2     1  UNL1        0.0009
     16 C         141.4007  137.3454  157.0916 C.2     1  UNL1        0.0154
     17 C         141.1291  136.6198  155.8073 C.2     1  UNL1        0.0218
     18 C         139.6793  136.8027  155.4691 C.2     1  UNL1        0.0985
     19 N         139.0548  137.6415  156.5445 N.2     1  UNL1       -0.2478
     20 C         140.1187  137.9769  157.5472 C.2     1  UNL1        0.0634
     21 C         140.0856  138.7757  158.8164 C.3     1  UNL1        0.0721
     22 C         141.0774  140.2406  164.7418 C.ar    1  UNL1        0.0656
     23 C         139.8308  140.7019  165.4370 C.ar    1  UNL1        0.0207
     24 C         139.7248  140.6042  166.9301 C.ar    1  UNL1        0.0384
     25 C         140.8653  140.0451  167.7280 C.ar    1  UNL1        0.1387
     26 C         142.1118  139.5838  167.0328 C.ar    1  UNL1        0.0384
     27 C         142.2179  139.6815  165.5398 C.ar    1  UNL1        0.0207
     28 O         140.7593  139.9474  169.2211 O.3     1  UNL1       -0.4740
     29 C         139.7278  140.7528  169.9539 C.3     1  UNL1        0.2224
     30 C         140.0248  142.1685  170.3511 C.3     1  UNL1        0.1166
     31 N         141.2963  142.4926  171.0779 N.3     1  UNL1       -0.2923
     32 H         141.5686  141.6504  171.5848 H       1  UNL1        0.1234
     33 C         142.5035  142.9461  170.3118 C.3     1  UNL1        0.1008
     34 C         143.4950  141.9389  169.8097 C.3     1  UNL1        0.1542
     35 O         143.5450  140.5683  170.4172 O.3     1  UNL1       -0.3805
     36 H         143.8342  140.6343  171.3407 H       1  UNL1        0.2105
@<TRIPOS>BOND
     1     1     2    1
     2     2     3   ar
     3     3     4   ar
     4     4     5   ar
     5     5     6   ar
     6     6     7   ar
     7     7     8   ar
     8     8    13    1
     9    13    14    2
    10    14    15    1
    11    15    16    2
    12    16    17    1
    13    17    18    2
    14    18    19    1
    15    19    20    2
    16    20    21    1
    17     8     9   ar
    18     9    10   ar
    19    10    22    1
    20    22    23   ar
    21    23    24   ar
    22    24    25   ar
    23    25    28    1
    24    28    29    1
    25    29    30    1
    26    30    31    1
    27    31    33    1
    28    33    34    1
    29    34    35    1
    30    25    26   ar
    31    26    27   ar
    32     7     2   ar
    33    21    13    1
    34    27    22   ar
    35    10     6   ar
    36    20    16    1
    37     1    11    1
    38     1    12    1
    39    31    32    1
    40    35    36    1
