@<TRIPOS>MOLECULE
*****
 34 37 0 0 0
SMALL
GASTEIGER

@<TRIPOS>ATOM
      1 C         139.5737  141.7394  163.8846 C.ar    1  UNL1        0.1525
      2 C         140.1245  142.5123  165.0461 C.ar    1  UNL1        0.1337
      3 N         140.0703  141.9304  166.4276 N.ar    1  UNL1       -0.2316
      4 C         139.4652  140.5756  166.6475 C.ar    1  UNL1        0.1420
      5 C         138.9143  139.8027  165.4859 C.ar    1  UNL1        0.1508
      6 N         138.3093  138.4478  165.7058 N.pl3   1  UNL1       -0.3410
      7 N         138.9686  140.3846  164.1045 N.ar    1  UNL1       -0.2128
      8 H         138.2737  138.0659  166.6125 H       1  UNL1        0.1438
      9 H         137.9477  137.9406  164.9435 H       1  UNL1        0.1438
     10 C         140.9547  145.9532  157.0036 C.3     1  UNL1        0.0335
     11 C         140.3213  144.8869  157.8472 C.3     1  UNL1        0.1294
     12 O         139.3182  143.8737  157.3811 O.3     1  UNL1       -0.3548
     13 C         138.9567  143.0072  158.5510 C.3     1  UNL1        0.1434
     14 C         139.7363  143.4849  159.7401 C.3     1  UNL1        0.0460
     15 C         138.8405  142.3165  160.0272 C.3     1  UNL1        0.0253
     16 C         138.7863  141.7347  161.4086 C.3     1  UNL1        0.0923
     17 N         139.6279  142.3213  162.5030 N.pl3   1  UNL1       -0.2920
     18 C         140.5237  143.4896  162.2160 C.3     1  UNL1        0.0923
     19 C         140.5779  144.0714  160.8345 C.3     1  UNL1        0.0253
     20 C         140.5797  144.6467  159.3051 C.3     1  UNL1        0.0807
     21 N         141.5169  145.4304  160.1753 N.3     1  UNL1       -0.3202
     22 H         141.4975  145.0526  161.1225 H       1  UNL1        0.1189
     23 H         141.2268  146.4081  160.1933 H       1  UNL1        0.1189
     24 S         139.4109  139.9937  168.0289 S.3     1  UNL1       -0.0643
     25 C         140.1838  140.6343  169.1435 C.ar    1  UNL1        0.0458
     26 C         139.5144  141.6281  170.0458 C.ar    1  UNL1        0.0281
     27 C         140.2874  142.2688  171.1604 C.ar    1  UNL1        0.1009
     28 N         141.7296  141.9156  171.3725 N.ar    1  UNL1       -0.2287
     29 C         142.3991  140.9219  170.4701 C.ar    1  UNL1        0.1365
     30 N         143.8414  140.5687  170.6823 N.pl3   1  UNL1       -0.3419
     31 C         141.6262  140.2812  169.3556 C.ar    1  UNL1        0.0947
     32 CL        142.2956  139.2874  168.4532 Cl      1  UNL1       -0.0788
     33 H         144.3486  140.9892  171.4138 H       1  UNL1        0.1437
     34 H         144.2807  139.9165  170.0900 H       1  UNL1        0.1437
@<TRIPOS>BOND
     1    11    10    1
     2    11    12    1
     3    12    13    1
     4    13    14    1
     5    14    15    1
     6    15    16    1
     7    16    17    1
     8    17     1    1
     9     1     2   ar
    10     2     3   ar
    11     3     4   ar
    12     4    24    1
    13    24    25    1
    14    25    26   ar
    15    26    27   ar
    16    27    28   ar
    17    28    29   ar
    18    29    30    1
    19    29    31   ar
    20    31    32    1
    21     4     5   ar
    22     5     6    1
    23     5     7   ar
    24    17    18    1
    25    18    19    1
    26    14    20    1
    27    20    21    1
    28    20    11    1
    29    19    14    1
    30     7     1   ar
    31    31    25   ar
    32    30    33    1
    33    30    34    1
    34     6     8    1
    35     6     9    1
    36    21    22    1
    37    21    23    1
@<TRIPOS>MOLECULE
*****
 34 37 0 0 0
SMALL
GASTEIGER

@<TRIPOS>ATOM
      1 C         141.3408  141.6396  163.8826 C.ar    1  UNL1        0.1525
      2 C         140.8130  142.2538  165.1452 C.ar    1  UNL1        0.1337
      3 N         141.1895  141.6732  166.4761 N.ar    1  UNL1       -0.2316
      4 C         142.0938  140.4784  166.5443 C.ar    1  UNL1        0.1420
      5 C         142.6217  139.8642  165.2817 C.ar    1  UNL1        0.1508
      6 N         143.5260  138.6694  165.3499 N.pl3   1  UNL1       -0.3410
      7 N         142.2452  140.4448  163.9509 N.ar    1  UNL1       -0.2128
      8 H         143.7731  138.2884  166.2234 H       1  UNL1        0.1438
      9 H         143.8725  138.2663  164.5212 H       1  UNL1        0.1438
     10 C         140.3412  145.9963  157.0247 C.3     1  UNL1        0.0335
     11 C         140.0980  144.8502  157.9612 C.3     1  UNL1        0.1294
     12 O         139.1659  143.6993  157.7228 O.3     1  UNL1       -0.3548
     13 C         139.2360  142.7915  158.9149 C.3     1  UNL1        0.1434
     14 C         140.2113  143.3813  159.8900 C.3     1  UNL1        0.0460
     15 C         139.5924  142.0944  160.3490 C.3     1  UNL1        0.0253
     16 C         139.9689  141.5138  161.6799 C.3     1  UNL1        0.0923
     17 N         140.9643  142.2202  162.5517 N.pl3   1  UNL1       -0.2920
     18 C         141.5832  143.5071  162.0927 C.3     1  UNL1        0.0923
     19 C         141.2067  144.0877  160.7619 C.3     1  UNL1        0.0253
     20 C         140.7441  144.6536  159.3006 C.3     1  UNL1        0.0807
     21 N         141.7468  145.5687  159.9386 N.3     1  UNL1       -0.3202
     22 H         142.0190  145.1941  160.8474 H       1  UNL1        0.1189
     23 H         141.3335  146.4931  160.0617 H       1  UNL1        0.1189
     24 S         142.4703  139.8978  167.8751 S.3     1  UNL1       -0.0643
     25 C         142.0933  140.6124  169.1389 C.ar    1  UNL1        0.0458
     26 C         141.0075  140.0630  170.0159 C.ar    1  UNL1        0.0281
     27 C         140.6304  140.7777  171.2797 C.ar    1  UNL1        0.1009
     28 N         141.3392  142.0418  171.6664 N.ar    1  UNL1       -0.2287
     29 C         142.4251  142.5912  170.7894 C.ar    1  UNL1        0.1365
     30 N         143.1339  143.8553  171.1762 N.pl3   1  UNL1       -0.3419
     31 C         142.8021  141.8766  169.5257 C.ar    1  UNL1        0.0947
     32 CL        143.8879  142.4260  168.6487 Cl      1  UNL1       -0.0788
     33 H         142.8864  144.3244  172.0056 H       1  UNL1        0.1437
     34 H         143.8465  144.2159  170.6006 H       1  UNL1        0.1437
@<TRIPOS>BOND
     1    11    10    1
     2    11    12    1
     3    12    13    1
     4    13    14    1
     5    14    15    1
     6    15    16    1
     7    16    17    1
     8    17     1    1
     9     1     2   ar
    10     2     3   ar
    11     3     4   ar
    12     4    24    1
    13    24    25    1
    14    25    26   ar
    15    26    27   ar
    16    27    28   ar
    17    28    29   ar
    18    29    30    1
    19    29    31   ar
    20    31    32    1
    21     4     5   ar
    22     5     6    1
    23     5     7   ar
    24    17    18    1
    25    18    19    1
    26    14    20    1
    27    20    21    1
    28    20    11    1
    29    19    14    1
    30     7     1   ar
    31    31    25   ar
    32    30    33    1
    33    30    34    1
    34     6     8    1
    35     6     9    1
    36    21    22    1
    37    21    23    1
@<TRIPOS>MOLECULE
*****
 34 37 0 0 0
SMALL
GASTEIGER

@<TRIPOS>ATOM
      1 C         143.0919  140.5015  163.6742 C.ar    1  UNL1        0.1525
      2 C         142.1172  141.4009  164.3749 C.ar    1  UNL1        0.1337
      3 N         141.7816  141.1641  165.8176 N.ar    1  UNL1       -0.2316
      4 C         142.4207  140.0278  166.5596 C.ar    1  UNL1        0.1420
      5 C         143.3954  139.1284  165.8588 C.ar    1  UNL1        0.1508
      6 N         144.0345  137.9921  166.6007 N.pl3   1  UNL1       -0.3410
      7 N         143.7310  139.3652  164.4162 N.ar    1  UNL1       -0.2128
      8 H         143.8142  137.8366  167.5476 H       1  UNL1        0.1438
      9 H         144.6742  137.4018  166.1408 H       1  UNL1        0.1438
     10 C         144.4177  140.2471  155.6003 C.3     1  UNL1        0.0335
     11 C         144.3997  140.8773  156.9612 C.3     1  UNL1        0.1294
     12 O         144.8310  142.2756  157.2911 O.3     1  UNL1       -0.3548
     13 C         144.6451  142.4825  158.7652 C.3     1  UNL1        0.1434
     14 C         144.0988  141.2120  159.3463 C.3     1  UNL1        0.0460
     15 C         144.3046  142.3045  160.3533 C.3     1  UNL1        0.0253
     16 C         143.9689  142.0676  161.7959 C.3     1  UNL1        0.0923
     17 N         143.4276  140.7383  162.2315 N.pl3   1  UNL1       -0.2920
     18 C         143.2218  139.6458  161.2245 C.3     1  UNL1        0.0923
     19 C         143.5575  139.8827  159.7819 C.3     1  UNL1        0.0253
     20 C         143.9472  140.2200  158.2313 C.3     1  UNL1        0.0807
     21 N         143.4332  138.8171  158.3634 N.3     1  UNL1       -0.3202
     22 H         143.1975  138.6317  159.3384 H       1  UNL1        0.1189
     23 H         144.1519  138.1614  158.0568 H       1  UNL1        0.1189
     24 S         142.0851  139.7909  168.0022 S.3     1  UNL1       -0.0643
     25 C         142.0507  140.9423  168.9630 C.ar    1  UNL1        0.0458
     26 C         143.3120  141.6866  169.2871 C.ar    1  UNL1        0.0281
     27 C         143.2775  142.8381  170.2480 C.ar    1  UNL1        0.1009
     28 N         141.9818  143.2451  170.8846 N.ar    1  UNL1       -0.2287
     29 C         140.7204  142.5007  170.5605 C.ar    1  UNL1        0.1365
     30 N         139.4247  142.9077  171.1971 N.pl3   1  UNL1       -0.3419
     31 C         140.7549  141.3494  169.5997 C.ar    1  UNL1        0.0947
     32 CL        139.4936  140.6050  169.2756 Cl      1  UNL1       -0.0788
     33 H         139.4021  143.6634  171.8277 H       1  UNL1        0.1437
     34 H         138.5969  142.4192  170.9844 H       1  UNL1        0.1437
@<TRIPOS>BOND
     1    11    10    1
     2    11    12    1
     3    12    13    1
     4    13    14    1
     5    14    15    1
     6    15    16    1
     7    16    17    1
     8    17     1    1
     9     1     2   ar
    10     2     3   ar
    11     3     4   ar
    12     4    24    1
    13    24    25    1
    14    25    26   ar
    15    26    27   ar
    16    27    28   ar
    17    28    29   ar
    18    29    30    1
    19    29    31   ar
    20    31    32    1
    21     4     5   ar
    22     5     6    1
    23     5     7   ar
    24    17    18    1
    25    18    19    1
    26    14    20    1
    27    20    21    1
    28    20    11    1
    29    19    14    1
    30     7     1   ar
    31    31    25   ar
    32    30    33    1
    33    30    34    1
    34     6     8    1
    35     6     9    1
    36    21    22    1
    37    21    23    1
@<TRIPOS>MOLECULE
*****
 34 37 0 0 0
SMALL
GASTEIGER

@<TRIPOS>ATOM
      1 C         141.7798  139.1655  164.2218 C.ar    1  UNL1        0.1525
      2 C         140.8547  140.0278  165.0283 C.ar    1  UNL1        0.1337
      3 N         141.0371  140.1394  166.5131 N.ar    1  UNL1       -0.2316
      4 C         142.1445  139.3885  167.1912 C.ar    1  UNL1        0.1420
      5 C         143.0696  138.5261  166.3845 C.ar    1  UNL1        0.1508
      6 N         144.1770  137.7753  167.0626 N.pl3   1  UNL1       -0.3410
      7 N         142.8872  138.4146  164.8999 N.ar    1  UNL1       -0.2128
      8 H         144.2967  137.8485  168.0371 H       1  UNL1        0.1438
      9 H         144.7842  137.2093  166.5332 H       1  UNL1        0.1438
     10 C         142.3982  138.8437  156.0655 C.3     1  UNL1        0.0335
     11 C         141.6846  138.7855  157.3835 C.3     1  UNL1        0.1294
     12 O         140.2194  138.5329  157.5824 O.3     1  UNL1       -0.3548
     13 C         139.9401  138.5610  159.0560 C.3     1  UNL1        0.1434
     14 C         141.2326  138.8309  159.7677 C.3     1  UNL1        0.0460
     15 C         140.0550  138.6679  160.6823 C.3     1  UNL1        0.0253
     16 C         140.2374  138.7795  162.1670 C.3     1  UNL1        0.0923
     17 N         141.5974  139.0539  162.7370 N.pl3   1  UNL1       -0.2920
     18 C         142.7750  139.2169  161.8224 C.3     1  UNL1        0.0923
     19 C         142.5927  139.1053  160.3378 C.3     1  UNL1        0.0253
     20 C         142.3108  138.9696  158.7340 C.3     1  UNL1        0.0807
     21 N         143.7605  139.2442  159.0037 N.3     1  UNL1       -0.3202
     22 H         143.9100  139.3245  160.0094 H       1  UNL1        0.1189
     23 H         144.0317  140.1161  158.5490 H       1  UNL1        0.1189
     24 S         142.3269  139.5000  168.6758 S.3     1  UNL1       -0.0643
     25 C         142.1929  140.8333  169.3498 C.ar    1  UNL1        0.0458
     26 C         143.3978  141.7092  169.5259 C.ar    1  UNL1        0.0281
     27 C         143.2638  143.0425  170.2000 C.ar    1  UNL1        0.1009
     28 N         141.9249  143.4999  170.6979 N.ar    1  UNL1       -0.2287
     29 C         140.7199  142.6241  170.5218 C.ar    1  UNL1        0.1365
     30 N         139.3810  143.0815  171.0198 N.pl3   1  UNL1       -0.3419
     31 C         140.8539  141.2908  169.8478 C.ar    1  UNL1        0.0947
     32 CL        139.6490  140.4150  169.6717 Cl      1  UNL1       -0.0788
     33 H         139.2930  143.9566  171.4621 H       1  UNL1        0.1437
     34 H         138.5902  142.5067  170.9042 H       1  UNL1        0.1437
@<TRIPOS>BOND
     1    11    10    1
     2    11    12    1
     3    12    13    1
     4    13    14    1
     5    14    15    1
     6    15    16    1
     7    16    17    1
     8    17     1    1
     9     1     2   ar
    10     2     3   ar
    11     3     4   ar
    12     4    24    1
    13    24    25    1
    14    25    26   ar
    15    26    27   ar
    16    27    28   ar
    17    28    29   ar
    18    29    30    1
    19    29    31   ar
    20    31    32    1
    21     4     5   ar
    22     5     6    1
    23     5     7   ar
    24    17    18    1
    25    18    19    1
    26    14    20    1
    27    20    21    1
    28    20    11    1
    29    19    14    1
    30     7     1   ar
    31    31    25   ar
    32    30    33    1
    33    30    34    1
    34     6     8    1
    35     6     9    1
    36    21    22    1
    37    21    23    1
@<TRIPOS>MOLECULE
*****
 34 37 0 0 0
SMALL
GASTEIGER

@<TRIPOS>ATOM
      1 C         139.4356  140.3238  164.0814 C.ar    1  UNL1        0.1525
      2 C         140.4464  141.2453  164.6972 C.ar    1  UNL1        0.1337
      3 N         140.6009  141.3001  166.1883 N.ar    1  UNL1       -0.2316
      4 C         139.7447  140.4335  167.0634 C.ar    1  UNL1        0.1420
      5 C         138.7339  139.5120  166.4475 C.ar    1  UNL1        0.1508
      6 N         137.8777  138.6454  167.3226 N.pl3   1  UNL1       -0.3410
      7 N         138.5794  139.4572  164.9565 N.ar    1  UNL1       -0.2128
      8 H         137.9791  138.6814  168.3012 H       1  UNL1        0.1438
      9 H         137.2143  138.0406  166.9184 H       1  UNL1        0.1438
     10 C         138.1706  141.6017  156.0953 C.3     1  UNL1        0.0335
     11 C         138.5326  140.7969  157.3082 C.3     1  UNL1        0.1294
     12 O         138.9359  139.3522  157.3195 O.3     1  UNL1       -0.3548
     13 C         139.2075  138.9579  158.7412 C.3     1  UNL1        0.1434
     14 C         138.9721  140.1590  159.6084 C.3     1  UNL1        0.0460
     15 C         139.3986  138.9353  160.3637 C.3     1  UNL1        0.0253
     16 C         139.5531  138.9903  161.8547 C.3     1  UNL1        0.0923
     17 N         139.2811  140.2689  162.5903 N.pl3   1  UNL1       -0.2920
     18 C         138.8546  141.4926  161.8349 C.3     1  UNL1        0.0923
     19 C         138.7001  141.4377  160.3440 C.3     1  UNL1        0.0253
     20 C         138.5549  141.2956  158.7227 C.3     1  UNL1        0.0807
     21 N         138.2192  142.6865  159.1726 N.3     1  UNL1       -0.3202
     22 H         138.3172  142.7490  160.1859 H       1  UNL1        0.1189
     23 H         137.2584  142.9063  158.9097 H       1  UNL1        0.1189
     24 S         139.8992  140.4884  168.5544 S.3     1  UNL1       -0.0643
     25 C         140.7011  141.5878  169.1853 C.ar    1  UNL1        0.0458
     26 C         140.0338  142.8727  169.5775 C.ar    1  UNL1        0.0281
     27 C         140.8359  143.9722  170.2084 C.ar    1  UNL1        0.1009
     28 N         142.3050  143.7867  170.4472 N.ar    1  UNL1       -0.2287
     29 C         142.9723  142.5018  170.0550 C.ar    1  UNL1        0.1365
     30 N         144.4415  142.3164  170.2938 N.pl3   1  UNL1       -0.3419
     31 C         142.1704  141.4024  169.4241 C.ar    1  UNL1        0.0947
     32 CL        142.8376  140.1175  169.0320 Cl      1  UNL1       -0.0788
     33 H         144.9678  143.0379  170.7079 H       1  UNL1        0.1437
     34 H         144.8794  141.4730  170.0364 H       1  UNL1        0.1437
@<TRIPOS>BOND
     1    11    10    1
     2    11    12    1
     3    12    13    1
     4    13    14    1
     5    14    15    1
     6    15    16    1
     7    16    17    1
     8    17     1    1
     9     1     2   ar
    10     2     3   ar
    11     3     4   ar
    12     4    24    1
    13    24    25    1
    14    25    26   ar
    15    26    27   ar
    16    27    28   ar
    17    28    29   ar
    18    29    30    1
    19    29    31   ar
    20    31    32    1
    21     4     5   ar
    22     5     6    1
    23     5     7   ar
    24    17    18    1
    25    18    19    1
    26    14    20    1
    27    20    21    1
    28    20    11    1
    29    19    14    1
    30     7     1   ar
    31    31    25   ar
    32    30    33    1
    33    30    34    1
    34     6     8    1
    35     6     9    1
    36    21    22    1
    37    21    23    1
@<TRIPOS>MOLECULE
*****
 34 37 0 0 0
SMALL
GASTEIGER

@<TRIPOS>ATOM
      1 C         142.4914  142.8040  163.6804 C.ar    1  UNL1        0.1525
      2 C         143.5274  143.4346  164.5629 C.ar    1  UNL1        0.1337
      3 N         143.6923  142.9666  165.9785 N.ar    1  UNL1       -0.2316
      4 C         142.8210  141.8681  166.5116 C.ar    1  UNL1        0.1420
      5 C         141.7849  141.2375  165.6289 C.ar    1  UNL1        0.1508
      6 N         140.9136  140.1390  166.1620 N.pl3   1  UNL1       -0.3410
      7 N         141.6201  141.7055  164.2134 N.ar    1  UNL1       -0.2128
      8 H         141.0218  139.8318  167.0911 H       1  UNL1        0.1438
      9 H         140.2336  139.7251  165.5827 H       1  UNL1        0.1438
     10 C         140.3407  146.2266  156.5620 C.3     1  UNL1        0.0335
     11 C         141.1599  145.3508  157.4629 C.3     1  UNL1        0.1294
     12 O         142.3268  144.5048  157.0474 O.3     1  UNL1       -0.3548
     13 C         142.8442  143.7983  158.2654 C.3     1  UNL1        0.1434
     14 C         141.9970  144.2077  159.4336 C.3     1  UNL1        0.0460
     15 C         143.0899  143.2411  159.7816 C.3     1  UNL1        0.0253
     16 C         143.2547  142.7732  161.1971 C.3     1  UNL1        0.0923
     17 N         142.3266  143.2719  162.2647 N.pl3   1  UNL1       -0.2920
     18 C         141.2336  144.2385  161.9168 C.3     1  UNL1        0.0923
     19 C         141.0688  144.7064  160.5012 C.3     1  UNL1        0.0253
     20 C         140.9560  145.1672  158.9376 C.3     1  UNL1        0.0807
     21 N         139.8972  145.8272  159.7702 N.3     1  UNL1       -0.3202
     22 H         139.9889  145.5238  160.7398 H       1  UNL1        0.1189
     23 H         138.9761  145.5664  159.4181 H       1  UNL1        0.1189
     24 S         142.9858  141.4001  167.9271 S.3     1  UNL1       -0.0643
     25 C         141.8571  141.5519  168.9034 C.ar    1  UNL1        0.0458
     26 C         141.1761  142.8790  169.0621 C.ar    1  UNL1        0.0281
     27 C         140.0474  143.0307  170.0384 C.ar    1  UNL1        0.1009
     28 N         139.5998  141.8555  170.8559 N.ar    1  UNL1       -0.2287
     29 C         140.2808  140.5285  170.6972 C.ar    1  UNL1        0.1365
     30 N         139.8332  139.3532  171.5147 N.pl3   1  UNL1       -0.3419
     31 C         141.4095  140.3767  169.7210 C.ar    1  UNL1        0.0947
     32 CL        142.0905  139.0496  169.5623 Cl      1  UNL1       -0.0788
     33 H         139.0925  139.4528  172.1555 H       1  UNL1        0.1437
     34 H         140.2802  138.4823  171.4106 H       1  UNL1        0.1437
@<TRIPOS>BOND
     1    11    10    1
     2    11    12    1
     3    12    13    1
     4    13    14    1
     5    14    15    1
     6    15    16    1
     7    16    17    1
     8    17     1    1
     9     1     2   ar
    10     2     3   ar
    11     3     4   ar
    12     4    24    1
    13    24    25    1
    14    25    26   ar
    15    26    27   ar
    16    27    28   ar
    17    28    29   ar
    18    29    30    1
    19    29    31   ar
    20    31    32    1
    21     4     5   ar
    22     5     6    1
    23     5     7   ar
    24    17    18    1
    25    18    19    1
    26    14    20    1
    27    20    21    1
    28    20    11    1
    29    19    14    1
    30     7     1   ar
    31    31    25   ar
    32    30    33    1
    33    30    34    1
    34     6     8    1
    35     6     9    1
    36    21    22    1
    37    21    23    1
@<TRIPOS>MOLECULE
*****
 34 37 0 0 0
SMALL
GASTEIGER

@<TRIPOS>ATOM
      1 C         141.8661  142.0709  163.8255 C.ar    1  UNL1        0.1525
      2 C         141.9609  142.7701  165.1491 C.ar    1  UNL1        0.1337
      3 N         142.1735  141.9755  166.4036 N.ar    1  UNL1       -0.2316
      4 C         142.2912  140.4817  166.3342 C.ar    1  UNL1        0.1420
      5 C         142.1963  139.7826  165.0105 C.ar    1  UNL1        0.1508
      6 N         142.3140  138.2888  164.9412 N.pl3   1  UNL1       -0.3410
      7 N         141.9838  140.5772  163.7562 N.ar    1  UNL1       -0.2128
      8 H         142.4535  137.7673  165.7644 H       1  UNL1        0.1438
      9 H         142.2517  137.8299  164.0724 H       1  UNL1        0.1438
     10 C         142.0580  145.6384  156.4602 C.3     1  UNL1        0.0335
     11 C         141.5120  145.3640  157.8300 C.3     1  UNL1        0.1294
     12 O         140.2904  145.9909  158.4341 O.3     1  UNL1       -0.3548
     13 C         140.1151  145.4288  159.8138 C.3     1  UNL1        0.1434
     14 C         141.2283  144.4547  160.0624 C.3     1  UNL1        0.0460
     15 C         140.2767  144.6002  161.2127 C.3     1  UNL1        0.0253
     16 C         140.4893  143.8056  162.4670 C.3     1  UNL1        0.0923
     17 N         141.6535  142.8655  162.5710 N.pl3   1  UNL1       -0.2920
     18 C         142.6051  142.7200  161.4208 C.3     1  UNL1        0.0923
     19 C         142.3925  143.5146  160.1664 C.3     1  UNL1        0.0253
     20 C         142.0917  144.4147  158.8363 C.3     1  UNL1        0.0807
     21 N         143.3191  143.5730  158.6495 N.3     1  UNL1       -0.3202
     22 H         143.4849  143.0220  159.4917 H       1  UNL1        0.1189
     23 H         144.1222  144.1771  158.4749 H       1  UNL1        0.1189
     24 S         142.5038  139.6871  167.5886 S.3     1  UNL1       -0.0643
     25 C         141.8608  140.1244  168.8713 C.ar    1  UNL1        0.0458
     26 C         142.7113  140.5897  170.0159 C.ar    1  UNL1        0.0281
     27 C         142.0683  141.0270  171.2987 C.ar    1  UNL1        0.1009
     28 N         140.5749  140.9988  171.4368 N.ar    1  UNL1       -0.2287
     29 C         139.7245  140.5335  170.2922 C.ar    1  UNL1        0.1365
     30 N         138.2312  140.5053  170.4303 N.pl3   1  UNL1       -0.3419
     31 C         140.3674  140.0962  169.0094 C.ar    1  UNL1        0.0947
     32 CL        139.5170  139.6309  167.8648 Cl      1  UNL1       -0.0788
     33 H         137.8092  140.7923  171.2722 H       1  UNL1        0.1437
     34 H         137.6730  140.1999  169.6790 H       1  UNL1        0.1437
@<TRIPOS>BOND
     1    11    10    1
     2    11    12    1
     3    12    13    1
     4    13    14    1
     5    14    15    1
     6    15    16    1
     7    16    17    1
     8    17     1    1
     9     1     2   ar
    10     2     3   ar
    11     3     4   ar
    12     4    24    1
    13    24    25    1
    14    25    26   ar
    15    26    27   ar
    16    27    28   ar
    17    28    29   ar
    18    29    30    1
    19    29    31   ar
    20    31    32    1
    21     4     5   ar
    22     5     6    1
    23     5     7   ar
    24    17    18    1
    25    18    19    1
    26    14    20    1
    27    20    21    1
    28    20    11    1
    29    19    14    1
    30     7     1   ar
    31    31    25   ar
    32    30    33    1
    33    30    34    1
    34     6     8    1
    35     6     9    1
    36    21    22    1
    37    21    23    1
@<TRIPOS>MOLECULE
*****
 34 37 0 0 0
SMALL
GASTEIGER

@<TRIPOS>ATOM
      1 C         140.8501  138.4312  161.4470 C.ar    1  UNL1        0.1525
      2 C         142.2802  138.0563  161.1933 C.ar    1  UNL1        0.1337
      3 N         142.7675  137.8652  159.7875 N.ar    1  UNL1       -0.2316
      4 C         141.8246  138.0490  158.6355 C.ar    1  UNL1        0.1420
      5 C         140.3945  138.4238  158.8892 C.ar    1  UNL1        0.1508
      6 N         139.4516  138.6076  157.7371 N.pl3   1  UNL1       -0.3410
      7 N         139.9073  138.6149  160.2949 N.ar    1  UNL1       -0.2128
      8 H         139.7714  138.4822  156.8145 H       1  UNL1        0.1438
      9 H         138.5130  138.8537  157.9036 H       1  UNL1        0.1438
     10 C         139.4973  140.4548  169.2627 C.3     1  UNL1        0.0335
     11 C         139.2145  139.7590  167.9644 C.3     1  UNL1        0.1294
     12 O         138.0626  138.8380  167.6904 O.3     1  UNL1       -0.3548
     13 C         138.1701  138.3716  166.2687 C.3     1  UNL1        0.1434
     14 C         139.3884  139.0044  165.6641 C.3     1  UNL1        0.0460
     15 C         138.6345  138.1113  164.7239 C.3     1  UNL1        0.0253
     16 C         139.1217  137.9202  163.3183 C.3     1  UNL1        0.0923
     17 N         140.3629  138.6223  162.8527 N.pl3   1  UNL1       -0.2920
     18 C         141.1168  139.5154  163.7929 C.3     1  UNL1        0.0923
     19 C         140.6295  139.7064  165.1986 C.3     1  UNL1        0.0253
     20 C         140.0338  139.8618  166.7122 C.3     1  UNL1        0.0807
     21 N         141.2798  140.6786  166.5384 N.3     1  UNL1       -0.3202
     22 H         141.6311  140.5648  165.5876 H       1  UNL1        0.1189
     23 H         141.9876  140.3645  167.2023 H       1  UNL1        0.1189
     24 S         142.3118  137.8579  157.2297 S.3     1  UNL1       -0.0643
     25 C         142.3222  136.4878  156.6194 C.ar    1  UNL1        0.0458
     26 C         143.0660  135.3725  157.2925 C.ar    1  UNL1        0.0281
     27 C         143.0764  134.0023  156.6820 C.ar    1  UNL1        0.1009
     28 N         142.3431  133.7474  155.3986 N.ar    1  UNL1       -0.2287
     29 C         141.5994  134.8627  154.7255 C.ar    1  UNL1        0.1365
     30 N         140.8661  134.6078  153.4420 N.pl3   1  UNL1       -0.3419
     31 C         141.5889  136.2328  155.3359 C.ar    1  UNL1        0.0947
     32 CL        140.8452  137.3481  154.6628 Cl      1  UNL1       -0.0788
     33 H         140.8730  133.7086  153.0414 H       1  UNL1        0.1437
     34 H         140.3780  135.3398  153.0003 H       1  UNL1        0.1437
@<TRIPOS>BOND
     1    11    10    1
     2    11    12    1
     3    12    13    1
     4    13    14    1
     5    14    15    1
     6    15    16    1
     7    16    17    1
     8    17     1    1
     9     1     2   ar
    10     2     3   ar
    11     3     4   ar
    12     4    24    1
    13    24    25    1
    14    25    26   ar
    15    26    27   ar
    16    27    28   ar
    17    28    29   ar
    18    29    30    1
    19    29    31   ar
    20    31    32    1
    21     4     5   ar
    22     5     6    1
    23     5     7   ar
    24    17    18    1
    25    18    19    1
    26    14    20    1
    27    20    21    1
    28    20    11    1
    29    19    14    1
    30     7     1   ar
    31    31    25   ar
    32    30    33    1
    33    30    34    1
    34     6     8    1
    35     6     9    1
    36    21    22    1
    37    21    23    1
@<TRIPOS>MOLECULE
*****
 34 37 0 0 0
SMALL
GASTEIGER

@<TRIPOS>ATOM
      1 C         140.7676  138.3522  158.5889 C.ar    1  UNL1        0.1525
      2 C         142.2122  138.0260  158.8270 C.ar    1  UNL1        0.1337
      3 N         142.9408  137.1150  157.8839 N.ar    1  UNL1       -0.2316
      4 C         142.2247  136.5303  156.7026 C.ar    1  UNL1        0.1420
      5 C         140.7800  136.8565  156.4645 C.ar    1  UNL1        0.1508
      6 N         140.0639  136.2718  155.2833 N.pl3   1  UNL1       -0.3410
      7 N         140.0515  137.7674  157.4077 N.ar    1  UNL1       -0.2128
      8 H         140.5421  135.6739  154.6643 H       1  UNL1        0.1438
      9 H         139.1158  136.4859  155.1270 H       1  UNL1        0.1438
     10 C         137.7574  144.4853  163.0983 C.3     1  UNL1        0.0335
     11 C         137.8681  143.0666  162.6240 C.3     1  UNL1        0.1294
     12 O         137.0535  141.9067  163.1151 O.3     1  UNL1       -0.3548
     13 C         137.4948  140.6819  162.3699 C.3     1  UNL1        0.1434
     14 C         138.5820  141.0848  161.4182 C.3     1  UNL1        0.0460
     15 C         138.2409  139.6249  161.3720 C.3     1  UNL1        0.0253
     16 C         138.9694  138.7140  160.4289 C.3     1  UNL1        0.0923
     17 N         140.0391  139.2631  159.5320 N.pl3   1  UNL1       -0.2920
     18 C         140.3802  140.7231  159.5783 C.3     1  UNL1        0.0923
     19 C         139.6516  141.6339  160.5214 C.3     1  UNL1        0.0253
     20 C         138.8126  142.5587  161.5753 C.3     1  UNL1        0.0807
     21 N         139.8124  143.3803  160.8168 N.3     1  UNL1       -0.3202
     22 H         140.3219  142.7813  160.1671 H       1  UNL1        0.1189
     23 H         140.4681  143.8073  161.4711 H       1  UNL1        0.1189
     24 S         142.9532  135.6194  155.7595 S.3     1  UNL1       -0.0643
     25 C         142.6365  134.1534  155.7381 C.ar    1  UNL1        0.0458
     26 C         141.7794  133.5871  154.6450 C.ar    1  UNL1        0.0281
     27 C         141.4628  132.1210  154.6237 C.ar    1  UNL1        0.1009
     28 N         142.0031  131.2213  155.6953 N.ar    1  UNL1       -0.2287
     29 C         142.8602  131.7876  156.7883 C.ar    1  UNL1        0.1365
     30 N         143.4006  130.8879  157.8600 N.pl3   1  UNL1       -0.3419
     31 C         143.1769  133.2536  156.8098 C.ar    1  UNL1        0.0947
     32 CL        144.0339  133.8199  157.9028 Cl      1  UNL1       -0.0788
     33 H         143.1927  129.9257  157.8459 H       1  UNL1        0.1437
     34 H         143.9631  131.2595  158.5774 H       1  UNL1        0.1437
@<TRIPOS>BOND
     1    11    10    1
     2    11    12    1
     3    12    13    1
     4    13    14    1
     5    14    15    1
     6    15    16    1
     7    16    17    1
     8    17     1    1
     9     1     2   ar
    10     2     3   ar
    11     3     4   ar
    12     4    24    1
    13    24    25    1
    14    25    26   ar
    15    26    27   ar
    16    27    28   ar
    17    28    29   ar
    18    29    30    1
    19    29    31   ar
    20    31    32    1
    21     4     5   ar
    22     5     6    1
    23     5     7   ar
    24    17    18    1
    25    18    19    1
    26    14    20    1
    27    20    21    1
    28    20    11    1
    29    19    14    1
    30     7     1   ar
    31    31    25   ar
    32    30    33    1
    33    30    34    1
    34     6     8    1
    35     6     9    1
    36    21    22    1
    37    21    23    1
