@<TRIPOS>MOLECULE
*****
 35 39 0 0 0
SMALL
GASTEIGER

@<TRIPOS>ATOM
      1 N         141.0402  142.2440  164.8834 N.ar    1  UNL1       -0.3052
      2 C         141.5154  143.1203  163.7626 C.ar    1  UNL1        0.0757
      3 C         140.9388  142.5902  162.4834 C.ar    1  UNL1       -0.0035
      4 C         140.1072  141.3863  162.8136 C.ar    1  UNL1        0.0144
      5 C         139.3010  140.4572  161.9553 C.ar    1  UNL1        0.0126
      6 C         138.5574  139.3142  162.5803 C.ar    1  UNL1        0.0578
      7 CL        137.7512  138.3851  161.7219 Cl      1  UNL1       -0.0822
      8 C         138.6201  139.1003  164.0636 C.ar    1  UNL1        0.0129
      9 C         139.4263  140.0294  164.9219 C.ar    1  UNL1        0.0184
     10 C         140.1698  141.1724  164.2970 C.ar    1  UNL1        0.0638
     11 C         142.0483  142.7427  169.2407 C.ar    1  UNL1        0.0757
     12 C         143.0921  142.2545  168.2804 C.ar    1  UNL1        0.0079
     13 C         142.7561  142.0883  166.8280 C.ar    1  UNL1        0.0177
     14 C         141.3763  142.4103  166.3358 C.ar    1  UNL1        0.0640
     15 C         140.3324  142.8985  167.2961 C.ar    1  UNL1        0.0177
     16 C         140.6685  143.0648  168.7485 C.ar    1  UNL1        0.0079
     17 C         142.3844  142.9089  170.6931 C.2     1  UNL1        0.3413
     18 O         143.3901  143.9379  171.1171 O.2     1  UNL1       -0.2449
     19 C         140.9863  140.8047  171.2993 C.3     1  UNL1        0.2560
     20 O         141.7148  142.0462  171.7213 O.3     1  UNL1       -0.4413
     21 C         141.1557  143.1633  161.1143 C.3     1  UNL1        0.0266
     22 C         142.0598  142.4638  160.1430 C.3     1  UNL1        0.0218
     23 C         142.2767  143.0369  158.7738 C.3     1  UNL1        0.0725
     24 N         141.5896  144.3095  158.3760 N.3     1  UNL1       -0.2712
     25 C         140.6855  145.0089  159.3472 C.3     1  UNL1        0.0725
     26 C         140.4686  144.4358  160.7164 C.3     1  UNL1        0.0218
     27 C         141.8065  144.8826  157.0068 C.3     1  UNL1        0.0939
     28 C         140.9679  146.0328  156.5339 C.3     1  UNL1        0.1123
     29 N         139.6362  145.7765  155.8929 N.am    1  UNL1       -0.2610
     30 C         138.9170  144.4609  155.8502 C.3     1  UNL1        0.1162
     31 C         137.6261  144.6620  155.1130 C.3     1  UNL1        0.1124
     32 N         137.5477  146.1020  154.7002 N.am    1  UNL1       -0.2870
     33 C         138.7899  146.7908  155.1822 C.2     1  UNL1        0.3041
     34 O         139.1267  148.2394  154.9876 O.2     1  UNL1       -0.2526
     35 H         136.8103  146.5213  154.2005 H       1  UNL1        0.1510
@<TRIPOS>BOND
     1    19    20    1
     2    20    17    1
     3    17    18    2
     4    17    11    1
     5    11    12   ar
     6    12    13   ar
     7    13    14   ar
     8    14     1    1
     9     1     2   ar
    10     2     3   ar
    11     3    21    1
    12    21    22    1
    13    22    23    1
    14    23    24    1
    15    24    27    1
    16    27    28    1
    17    28    29    1
    18    29    30    1
    19    30    31    1
    20    31    32    1
    21    32    33   am
    22    33    34    2
    23    24    25    1
    24    25    26    1
    25     3     4   ar
    26     4     5   ar
    27     5     6   ar
    28     6     7    1
    29     6     8   ar
    30     8     9   ar
    31     9    10   ar
    32    14    15   ar
    33    15    16   ar
    34    16    11   ar
    35    10     1   ar
    36    26    21    1
    37    10     4   ar
    38    33    29   am
    39    32    35    1
@<TRIPOS>MOLECULE
*****
 35 39 0 0 0
SMALL
GASTEIGER

@<TRIPOS>ATOM
      1 N         140.3780  141.0316  164.8183 N.ar    1  UNL1       -0.3052
      2 C         139.4529  141.5322  163.7490 C.ar    1  UNL1        0.0757
      3 C         139.9354  140.9998  162.4323 C.ar    1  UNL1       -0.0035
      4 C         141.1586  140.1700  162.6878 C.ar    1  UNL1        0.0144
      5 C         142.0586  139.3992  161.7683 C.ar    1  UNL1        0.0126
      6 C         143.2322  138.6479  162.3234 C.ar    1  UNL1        0.0578
      7 CL        144.1323  137.8770  161.4038 Cl      1  UNL1       -0.0822
      8 C         143.5058  138.6676  163.7981 C.ar    1  UNL1        0.0129
      9 C         142.6058  139.4385  164.7177 C.ar    1  UNL1        0.0184
     10 C         141.4322  140.1897  164.1625 C.ar    1  UNL1        0.0638
     11 C         140.0488  141.9024  169.2210 C.ar    1  UNL1        0.0757
     12 C         139.6351  140.5625  168.6885 C.ar    1  UNL1        0.0079
     13 C         139.7448  140.2723  167.2209 C.ar    1  UNL1        0.0177
     14 C         140.2683  141.3218  166.2859 C.ar    1  UNL1        0.0640
     15 C         140.6821  142.6617  166.8185 C.ar    1  UNL1        0.0177
     16 C         140.5723  142.9520  168.2860 C.ar    1  UNL1        0.0079
     17 C         139.9391  142.1926  170.6886 C.2     1  UNL1        0.3413
     18 O         139.1046  143.3444  171.1649 O.2     1  UNL1       -0.2449
     19 C         142.0780  140.9079  171.4128 C.3     1  UNL1        0.2560
     20 O         140.6638  141.3311  171.6798 O.3     1  UNL1       -0.4413
     21 C         139.3052  141.2526  161.0947 C.3     1  UNL1        0.0266
     22 C         138.4378  140.2038  160.4640 C.3     1  UNL1        0.0218
     23 C         137.8076  140.4567  159.1265 C.3     1  UNL1        0.0725
     24 N         138.0448  141.7582  158.4197 N.3     1  UNL1       -0.2712
     25 C         138.9122  142.8070  159.0504 C.3     1  UNL1        0.0725
     26 C         139.5424  142.5541  160.3879 C.3     1  UNL1        0.0218
     27 C         137.4147  142.0111  157.0821 C.3     1  UNL1        0.0939
     28 C         136.9343  140.8595  156.2497 C.3     1  UNL1        0.1123
     29 N         135.5657  140.8964  155.6368 N.am    1  UNL1       -0.2610
     30 C         135.2060  141.5181  154.3200 C.3     1  UNL1        0.1162
     31 C         133.7345  141.3242  154.1024 C.3     1  UNL1        0.1124
     32 N         133.1849  140.5825  155.2848 N.am    1  UNL1       -0.2870
     33 C         134.3167  140.3182  156.2331 C.2     1  UNL1        0.3041
     34 O         134.2169  139.6014  157.5469 O.2     1  UNL1       -0.2526
     35 H         132.2462  140.3160  155.4155 H       1  UNL1        0.1510
@<TRIPOS>BOND
     1    19    20    1
     2    20    17    1
     3    17    18    2
     4    17    11    1
     5    11    12   ar
     6    12    13   ar
     7    13    14   ar
     8    14     1    1
     9     1     2   ar
    10     2     3   ar
    11     3    21    1
    12    21    22    1
    13    22    23    1
    14    23    24    1
    15    24    27    1
    16    27    28    1
    17    28    29    1
    18    29    30    1
    19    30    31    1
    20    31    32    1
    21    32    33   am
    22    33    34    2
    23    24    25    1
    24    25    26    1
    25     3     4   ar
    26     4     5   ar
    27     5     6   ar
    28     6     7    1
    29     6     8   ar
    30     8     9   ar
    31     9    10   ar
    32    14    15   ar
    33    15    16   ar
    34    16    11   ar
    35    10     1   ar
    36    26    21    1
    37    10     4   ar
    38    33    29   am
    39    32    35    1
@<TRIPOS>MOLECULE
*****
 35 39 0 0 0
SMALL
GASTEIGER

@<TRIPOS>ATOM
      1 N         141.5274  142.2855  164.3342 N.ar    1  UNL1       -0.3052
      2 C         141.7730  141.0469  163.5247 C.ar    1  UNL1        0.0757
      3 C         141.5282  141.3795  162.0826 C.ar    1  UNL1       -0.0035
      4 C         141.1312  142.8237  162.0010 C.ar    1  UNL1        0.0144
      5 C         140.7702  143.7012  160.8393 C.ar    1  UNL1        0.0126
      6 C         140.4086  145.1387  161.0691 C.ar    1  UNL1        0.0578
      7 CL        140.0475  146.0163  159.9074 Cl      1  UNL1       -0.0822
      8 C         140.4081  145.6987  162.4607 C.ar    1  UNL1        0.0129
      9 C         140.7692  144.8212  163.6224 C.ar    1  UNL1        0.0184
     10 C         141.1308  143.3837  163.3925 C.ar    1  UNL1        0.0638
     11 C         141.9127  142.6443  168.8033 C.ar    1  UNL1        0.0757
     12 C         143.0983  142.2397  167.9784 C.ar    1  UNL1        0.0079
     13 C         142.9699  142.1201  166.4887 C.ar    1  UNL1        0.0177
     14 C         141.6559  142.4051  165.8239 C.ar    1  UNL1        0.0640
     15 C         140.4701  142.8097  166.6489 C.ar    1  UNL1        0.0177
     16 C         140.5986  142.9293  168.1386 C.ar    1  UNL1        0.0079
     17 C         142.0411  142.7638  170.2930 C.2     1  UNL1        0.3413
     18 O         143.0405  143.7123  170.8858 O.2     1  UNL1       -0.2449
     19 C         140.8882  140.5023  170.8462 C.3     1  UNL1        0.2560
     20 O         141.1702  141.9349  171.1899 O.3     1  UNL1       -0.4413
     21 C         141.6576  140.4339  160.9254 C.3     1  UNL1        0.0266
     22 C         140.4765  139.6201  160.4862 C.3     1  UNL1        0.0218
     23 C         140.6059  138.6745  159.3290 C.3     1  UNL1        0.0725
     24 N         141.9163  138.5427  158.6110 N.3     1  UNL1       -0.2712
     25 C         143.0973  139.3565  159.0502 C.3     1  UNL1        0.0725
     26 C         142.9679  140.3021  160.2074 C.3     1  UNL1        0.0218
     27 C         142.0457  137.5971  157.4538 C.3     1  UNL1        0.0939
     28 C         142.9544  136.4080  157.5550 C.3     1  UNL1        0.1123
     29 N         142.6387  135.1558  156.7919 N.am    1  UNL1       -0.2610
     30 C         141.6592  135.0350  155.6623 C.3     1  UNL1        0.1162
     31 C         141.6621  133.6090  155.1967 C.3     1  UNL1        0.1124
     32 N         142.6435  132.8486  156.0386 N.am    1  UNL1       -0.2870
     33 C         143.2470  133.8045  157.0245 C.2     1  UNL1        0.3041
     34 O         144.2778  133.4682  158.0609 O.2     1  UNL1       -0.2526
     35 H         142.8544  131.8903  155.9583 H       1  UNL1        0.1510
@<TRIPOS>BOND
     1    19    20    1
     2    20    17    1
     3    17    18    2
     4    17    11    1
     5    11    12   ar
     6    12    13   ar
     7    13    14   ar
     8    14     1    1
     9     1     2   ar
    10     2     3   ar
    11     3    21    1
    12    21    22    1
    13    22    23    1
    14    23    24    1
    15    24    27    1
    16    27    28    1
    17    28    29    1
    18    29    30    1
    19    30    31    1
    20    31    32    1
    21    32    33   am
    22    33    34    2
    23    24    25    1
    24    25    26    1
    25     3     4   ar
    26     4     5   ar
    27     5     6   ar
    28     6     7    1
    29     6     8   ar
    30     8     9   ar
    31     9    10   ar
    32    14    15   ar
    33    15    16   ar
    34    16    11   ar
    35    10     1   ar
    36    26    21    1
    37    10     4   ar
    38    33    29   am
    39    32    35    1
@<TRIPOS>MOLECULE
*****
 35 39 0 0 0
SMALL
GASTEIGER

@<TRIPOS>ATOM
      1 N         141.8772  141.1051  164.6193 N.ar    1  UNL1       -0.3052
      2 C         141.9593  139.9923  163.6168 C.ar    1  UNL1        0.0757
      3 C         141.6764  140.5682  162.2610 C.ar    1  UNL1       -0.0035
      4 C         141.4195  142.0368  162.4255 C.ar    1  UNL1        0.0144
      5 C         141.0886  143.1148  161.4364 C.ar    1  UNL1        0.0126
      6 C         140.8819  144.5247  161.9048 C.ar    1  UNL1        0.0578
      7 CL        140.5510  145.6028  160.9157 Cl      1  UNL1       -0.0822
      8 C         141.0060  144.8565  163.3624 C.ar    1  UNL1        0.0129
      9 C         141.3369  143.7785  164.3515 C.ar    1  UNL1        0.0184
     10 C         141.5436  142.3687  163.8830 C.ar    1  UNL1        0.0638
     11 C         142.5190  140.7203  169.0567 C.ar    1  UNL1        0.0757
     12 C         143.0473  141.9175  168.3235 C.ar    1  UNL1        0.0079
     13 C         142.8333  142.0457  166.8444 C.ar    1  UNL1        0.0177
     14 C         142.0912  140.9768  166.0984 C.ar    1  UNL1        0.0640
     15 C         141.5628  139.7795  166.8317 C.ar    1  UNL1        0.0177
     16 C         141.7768  139.6513  168.3108 C.ar    1  UNL1        0.0079
     17 C         142.7330  140.5920  170.5358 C.2     1  UNL1        0.3413
     18 O         143.6994  139.5760  171.0684 O.2     1  UNL1       -0.2449
     19 C         140.6412  142.0297  171.0901 C.3     1  UNL1        0.2560
     20 O         141.9806  141.4798  171.4822 O.3     1  UNL1       -0.4413
     21 C         141.6543  139.8087  160.9676 C.3     1  UNL1        0.0266
     22 C         140.3654  139.6399  160.2189 C.3     1  UNL1        0.0218
     23 C         140.3433  138.8805  158.9255 C.3     1  UNL1        0.0725
     24 N         141.6100  138.2898  158.3809 N.3     1  UNL1       -0.2712
     25 C         142.8988  138.4586  159.1296 C.3     1  UNL1        0.0725
     26 C         142.9209  139.2180  160.4229 C.3     1  UNL1        0.0218
     27 C         141.5879  137.5303  157.0875 C.3     1  UNL1        0.0939
     28 C         142.7029  136.5839  156.7545 C.3     1  UNL1        0.1123
     29 N         142.3946  135.1667  156.3715 N.am    1  UNL1       -0.2610
     30 C         141.4642  134.7314  155.2785 C.3     1  UNL1        0.1162
     31 C         141.4571  133.2317  155.2458 C.3     1  UNL1        0.1124
     32 N         142.3831  132.7403  156.3186 N.am    1  UNL1       -0.2870
     33 C         142.9626  133.9362  157.0144 C.2     1  UNL1        0.3041
     34 O         143.9385  133.9067  158.1530 O.2     1  UNL1       -0.2526
     35 H         142.5767  131.7983  156.5292 H       1  UNL1        0.1510
@<TRIPOS>BOND
     1    19    20    1
     2    20    17    1
     3    17    18    2
     4    17    11    1
     5    11    12   ar
     6    12    13   ar
     7    13    14   ar
     8    14     1    1
     9     1     2   ar
    10     2     3   ar
    11     3    21    1
    12    21    22    1
    13    22    23    1
    14    23    24    1
    15    24    27    1
    16    27    28    1
    17    28    29    1
    18    29    30    1
    19    30    31    1
    20    31    32    1
    21    32    33   am
    22    33    34    2
    23    24    25    1
    24    25    26    1
    25     3     4   ar
    26     4     5   ar
    27     5     6   ar
    28     6     7    1
    29     6     8   ar
    30     8     9   ar
    31     9    10   ar
    32    14    15   ar
    33    15    16   ar
    34    16    11   ar
    35    10     1   ar
    36    26    21    1
    37    10     4   ar
    38    33    29   am
    39    32    35    1
@<TRIPOS>MOLECULE
*****
 35 39 0 0 0
SMALL
GASTEIGER

@<TRIPOS>ATOM
      1 N         141.0493  141.3508  164.3066 N.ar    1  UNL1       -0.3052
      2 C         141.0306  142.5908  163.4627 C.ar    1  UNL1        0.0757
      3 C         141.4912  142.2203  162.0841 C.ar    1  UNL1       -0.0035
      4 C         141.7944  140.7513  162.0759 C.ar    1  UNL1        0.0144
      5 C         142.2840  139.8335  160.9952 C.ar    1  UNL1        0.0126
      6 C         142.5005  138.3785  161.2880 C.ar    1  UNL1        0.0578
      7 CL        142.9901  137.4606  160.2072 Cl      1  UNL1       -0.0822
      8 C         142.2274  137.8411  162.6616 C.ar    1  UNL1        0.0129
      9 C         141.7378  138.7588  163.7423 C.ar    1  UNL1        0.0184
     10 C         141.5213  140.2139  163.4495 C.ar    1  UNL1        0.0638
     11 C         139.8922  141.0877  168.6473 C.ar    1  UNL1        0.0757
     12 C         139.6885  139.9077  167.7440 C.ar    1  UNL1        0.0079
     13 C         140.0742  139.9955  166.2971 C.ar    1  UNL1        0.0177
     14 C         140.6636  141.2631  165.7535 C.ar    1  UNL1        0.0640
     15 C         140.8673  142.4432  166.6569 C.ar    1  UNL1        0.0177
     16 C         140.4816  142.3554  168.1038 C.ar    1  UNL1        0.0079
     17 C         139.5065  141.0000  170.0943 C.2     1  UNL1        0.3413
     18 O         138.1259  140.5554  170.4767 O.2     1  UNL1       -0.2449
     19 C         141.9302  140.9199  171.0264 C.3     1  UNL1        0.2560
     20 O         140.5014  141.3569  171.1586 O.3     1  UNL1       -0.4413
     21 C         141.6249  143.1547  160.9184 C.3     1  UNL1        0.0266
     22 C         142.6852  142.9167  159.8842 C.3     1  UNL1        0.0218
     23 C         142.8190  143.8511  158.7184 C.3     1  UNL1        0.0725
     24 N         141.8926  145.0234  158.5868 N.3     1  UNL1       -0.2712
     25 C         140.8324  145.2614  159.6208 C.3     1  UNL1        0.0725
     26 C         140.6986  144.3270  160.7866 C.3     1  UNL1        0.0218
     27 C         142.0263  145.9578  157.4210 C.3     1  UNL1        0.0939
     28 C         141.5927  145.5183  156.0540 C.3     1  UNL1        0.1123
     29 N         140.1461  145.5959  155.6649 N.am    1  UNL1       -0.2610
     30 C         139.1368  144.4943  155.7987 C.3     1  UNL1        0.1162
     31 C         137.8217  145.0063  155.2903 C.3     1  UNL1        0.1124
     32 N         138.0183  146.4243  154.8422 N.am    1  UNL1       -0.2870
     33 C         139.4548  146.7887  155.0738 C.2     1  UNL1        0.3041
     34 O         140.0887  148.1132  154.7679 O.2     1  UNL1       -0.2526
     35 H         137.3260  147.0125  154.4628 H       1  UNL1        0.1510
@<TRIPOS>BOND
     1    19    20    1
     2    20    17    1
     3    17    18    2
     4    17    11    1
     5    11    12   ar
     6    12    13   ar
     7    13    14   ar
     8    14     1    1
     9     1     2   ar
    10     2     3   ar
    11     3    21    1
    12    21    22    1
    13    22    23    1
    14    23    24    1
    15    24    27    1
    16    27    28    1
    17    28    29    1
    18    29    30    1
    19    30    31    1
    20    31    32    1
    21    32    33   am
    22    33    34    2
    23    24    25    1
    24    25    26    1
    25     3     4   ar
    26     4     5   ar
    27     5     6   ar
    28     6     7    1
    29     6     8   ar
    30     8     9   ar
    31     9    10   ar
    32    14    15   ar
    33    15    16   ar
    34    16    11   ar
    35    10     1   ar
    36    26    21    1
    37    10     4   ar
    38    33    29   am
    39    32    35    1
@<TRIPOS>MOLECULE
*****
 35 39 0 0 0
SMALL
GASTEIGER

@<TRIPOS>ATOM
      1 N         141.2976  141.8827  164.8488 N.ar    1  UNL1       -0.3052
      2 C         141.9146  142.6136  163.6933 C.ar    1  UNL1        0.0757
      3 C         141.3760  142.0172  162.4268 C.ar    1  UNL1       -0.0035
      4 C         140.4262  140.9177  162.7994 C.ar    1  UNL1        0.0144
      5 C         139.5991  139.9815  161.9691 C.ar    1  UNL1        0.0126
      6 C         138.7236  138.9621  162.6356 C.ar    1  UNL1        0.0578
      7 CL        137.8965  138.0259  161.8053 Cl      1  UNL1       -0.0822
      8 C         138.6752  138.8790  164.1326 C.ar    1  UNL1        0.0129
      9 C         139.5022  139.8152  164.9629 C.ar    1  UNL1        0.0184
     10 C         140.3777  140.8345  164.2963 C.ar    1  UNL1        0.0638
     11 C         142.0707  142.6920  169.2074 C.ar    1  UNL1        0.0757
     12 C         140.7204  142.9767  168.6197 C.ar    1  UNL1        0.0079
     13 C         140.4627  142.7069  167.1668 C.ar    1  UNL1        0.0177
     14 C         141.5553  142.1525  166.3016 C.ar    1  UNL1        0.0640
     15 C         142.9058  141.8677  166.8894 C.ar    1  UNL1        0.0177
     16 C         143.1634  142.1375  168.3422 C.ar    1  UNL1        0.0079
     17 C         142.3284  142.9618  170.6603 C.2     1  UNL1        0.3413
     18 O         143.3421  143.9912  171.0636 O.2     1  UNL1       -0.2449
     19 C         140.9756  140.8651  171.3839 C.3     1  UNL1        0.2560
     20 O         141.5724  142.2022  171.7098 O.3     1  UNL1       -0.4413
     21 C         141.7258  142.4452  161.0323 C.3     1  UNL1        0.0266
     22 C         140.6391  142.8115  160.0653 C.3     1  UNL1        0.0218
     23 C         140.9889  143.2395  158.6709 C.3     1  UNL1        0.0725
     24 N         142.4254  143.3012  158.2434 N.3     1  UNL1       -0.2712
     25 C         143.5120  142.9349  159.2103 C.3     1  UNL1        0.0725
     26 C         143.1622  142.5069  160.6048 C.3     1  UNL1        0.0218
     27 C         142.7752  143.7292  156.8489 C.3     1  UNL1        0.0939
     28 C         142.9764  142.6997  155.7768 C.3     1  UNL1        0.1123
     29 N         143.0439  141.2451  156.1369 N.am    1  UNL1       -0.2610
     30 C         141.8953  140.2804  156.1278 C.3     1  UNL1        0.1162
     31 C         142.4132  138.9389  156.5546 C.3     1  UNL1        0.1124
     32 N         143.8820  139.0745  156.8274 N.am    1  UNL1       -0.2870
     33 C         144.2718  140.4998  156.5692 C.2     1  UNL1        0.3041
     34 O         145.6477  141.0782  156.7174 O.2     1  UNL1       -0.2526
     35 H         144.4844  138.3545  157.1238 H       1  UNL1        0.1510
@<TRIPOS>BOND
     1    19    20    1
     2    20    17    1
     3    17    18    2
     4    17    11    1
     5    11    12   ar
     6    12    13   ar
     7    13    14   ar
     8    14     1    1
     9     1     2   ar
    10     2     3   ar
    11     3    21    1
    12    21    22    1
    13    22    23    1
    14    23    24    1
    15    24    27    1
    16    27    28    1
    17    28    29    1
    18    29    30    1
    19    30    31    1
    20    31    32    1
    21    32    33   am
    22    33    34    2
    23    24    25    1
    24    25    26    1
    25     3     4   ar
    26     4     5   ar
    27     5     6   ar
    28     6     7    1
    29     6     8   ar
    30     8     9   ar
    31     9    10   ar
    32    14    15   ar
    33    15    16   ar
    34    16    11   ar
    35    10     1   ar
    36    26    21    1
    37    10     4   ar
    38    33    29   am
    39    32    35    1
@<TRIPOS>MOLECULE
*****
 35 39 0 0 0
SMALL
GASTEIGER

@<TRIPOS>ATOM
      1 N         141.7199  142.2341  164.6537 N.ar    1  UNL1       -0.3052
      2 C         142.0410  140.9911  163.8779 C.ar    1  UNL1        0.0757
      3 C         141.7837  141.2710  162.4269 C.ar    1  UNL1       -0.0035
      4 C         141.3035  142.6869  162.3059 C.ar    1  UNL1        0.0144
      5 C         140.8971  143.5111  161.1204 C.ar    1  UNL1        0.0126
      6 C         140.4513  144.9305  161.3112 C.ar    1  UNL1        0.0578
      7 CL        140.0448  145.7548  160.1257 Cl      1  UNL1       -0.0822
      8 C         140.4119  145.5258  162.6875 C.ar    1  UNL1        0.0129
      9 C         140.8183  144.7016  163.8730 C.ar    1  UNL1        0.0184
     10 C         141.2641  143.2821  163.6822 C.ar    1  UNL1        0.0638
     11 C         142.0637  142.7315  169.1129 C.ar    1  UNL1        0.0757
     12 C         140.7375  142.9184  168.4374 C.ar    1  UNL1        0.0079
     13 C         140.6230  142.7525  166.9510 C.ar    1  UNL1        0.0177
     14 C         141.8345  142.3999  166.1401 C.ar    1  UNL1        0.0640
     15 C         143.1608  142.2130  166.8156 C.ar    1  UNL1        0.0177
     16 C         143.2753  142.3788  168.3020 C.ar    1  UNL1        0.0079
     17 C         142.1783  142.8973  170.5993 C.2     1  UNL1        0.3413
     18 O         143.1703  143.8659  171.1716 O.2     1  UNL1       -0.2449
     19 C         140.9249  140.6888  171.1487 C.3     1  UNL1        0.2560
     20 O         141.3008  142.0945  171.5134 O.3     1  UNL1       -0.4413
     21 C         141.9732  140.3046  161.2954 C.3     1  UNL1        0.0266
     22 C         143.3250  140.1430  160.6656 C.3     1  UNL1        0.0218
     23 C         143.5145  139.1766  159.5341 C.3     1  UNL1        0.0725
     24 N         142.3523  138.3719  159.0324 N.3     1  UNL1       -0.2712
     25 C         141.0006  138.5336  159.6622 C.3     1  UNL1        0.0725
     26 C         140.8111  139.4999  160.7937 C.3     1  UNL1        0.0218
     27 C         142.5419  137.4055  157.9009 C.3     1  UNL1        0.0939
     28 C         141.4524  137.2139  156.8879 C.3     1  UNL1        0.1123
     29 N         141.7191  137.4910  155.4381 N.am    1  UNL1       -0.2610
     30 C         141.0463  138.5395  154.6026 C.3     1  UNL1        0.1162
     31 C         141.6168  138.4648  153.2172 C.3     1  UNL1        0.1124
     32 N         142.6422  137.3701  153.1967 N.am    1  UNL1       -0.2870
     33 C         142.7054  136.7683  154.5692 C.2     1  UNL1        0.3041
     34 O         143.5981  135.6416  154.9976 O.2     1  UNL1       -0.2526
     35 H         143.1794  137.0949  152.4189 H       1  UNL1        0.1510
@<TRIPOS>BOND
     1    19    20    1
     2    20    17    1
     3    17    18    2
     4    17    11    1
     5    11    12   ar
     6    12    13   ar
     7    13    14   ar
     8    14     1    1
     9     1     2   ar
    10     2     3   ar
    11     3    21    1
    12    21    22    1
    13    22    23    1
    14    23    24    1
    15    24    27    1
    16    27    28    1
    17    28    29    1
    18    29    30    1
    19    30    31    1
    20    31    32    1
    21    32    33   am
    22    33    34    2
    23    24    25    1
    24    25    26    1
    25     3     4   ar
    26     4     5   ar
    27     5     6   ar
    28     6     7    1
    29     6     8   ar
    30     8     9   ar
    31     9    10   ar
    32    14    15   ar
    33    15    16   ar
    34    16    11   ar
    35    10     1   ar
    36    26    21    1
    37    10     4   ar
    38    33    29   am
    39    32    35    1
@<TRIPOS>MOLECULE
*****
 35 39 0 0 0
SMALL
GASTEIGER

@<TRIPOS>ATOM
      1 N         142.1731  141.2248  164.6118 N.ar    1  UNL1       -0.3052
      2 C         142.4977  140.2167  163.5496 C.ar    1  UNL1        0.0757
      3 C         142.1934  140.8336  162.2166 C.ar    1  UNL1       -0.0035
      4 C         141.6806  142.2229  162.4550 C.ar    1  UNL1        0.0144
      5 C         141.2234  143.2990  161.5153 C.ar    1  UNL1        0.0126
      6 C         140.7538  144.6170  162.0560 C.ar    1  UNL1        0.0578
      7 CL        140.2966  145.6932  161.1163 Cl      1  UNL1       -0.0822
      8 C         140.7412  144.8588  163.5363 C.ar    1  UNL1        0.0129
      9 C         141.1983  143.7827  164.4760 C.ar    1  UNL1        0.0184
     10 C         141.6680  142.4647  163.9353 C.ar    1  UNL1        0.0638
     11 C         142.6333  140.6336  169.0490 C.ar    1  UNL1        0.0757
     12 C         141.9808  139.5716  168.2145 C.ar    1  UNL1        0.0079
     13 C         141.8274  139.7687  166.7355 C.ar    1  UNL1        0.0177
     14 C         142.3265  141.0277  166.0908 C.ar    1  UNL1        0.0640
     15 C         142.9790  142.0898  166.9253 C.ar    1  UNL1        0.0177
     16 C         143.1324  141.8927  168.4044 C.ar    1  UNL1        0.0079
     17 C         142.7867  140.4365  170.5281 C.2     1  UNL1        0.3413
     18 O         143.7366  139.4006  171.0520 O.2     1  UNL1       -0.2449
     19 C         140.6091  141.7277  171.1118 C.3     1  UNL1        0.2560
     20 O         141.9903  141.2752  171.4831 O.3     1  UNL1       -0.4413
     21 C         142.3706  140.1765  160.8799 C.3     1  UNL1        0.0266
     22 C         143.4961  140.5960  159.9813 C.3     1  UNL1        0.0218
     23 C         143.6734  139.9389  158.6446 C.3     1  UNL1        0.0725
     24 N         142.7253  138.8623  158.2064 N.3     1  UNL1       -0.2712
     25 C         141.5999  138.4428  159.1050 C.3     1  UNL1        0.0725
     26 C         141.4226  139.0999  160.4417 C.3     1  UNL1        0.0218
     27 C         142.9026  138.2052  156.8697 C.3     1  UNL1        0.0939
     28 C         141.9315  137.1562  156.4151 C.3     1  UNL1        0.1123
     29 N         142.3088  135.7059  156.4808 N.am    1  UNL1       -0.2610
     30 C         143.2091  135.0746  157.5011 C.3     1  UNL1        0.1162
     31 C         143.3088  133.6108  157.1888 C.3     1  UNL1        0.1124
     32 N         142.4702  133.3376  155.9755 N.am    1  UNL1       -0.2870
     33 C         141.8522  134.6324  155.5379 C.2     1  UNL1        0.3041
     34 O         140.9380  134.8206  154.3638 O.2     1  UNL1       -0.2526
     35 H         142.3470  132.4621  155.5423 H       1  UNL1        0.1510
@<TRIPOS>BOND
     1    19    20    1
     2    20    17    1
     3    17    18    2
     4    17    11    1
     5    11    12   ar
     6    12    13   ar
     7    13    14   ar
     8    14     1    1
     9     1     2   ar
    10     2     3   ar
    11     3    21    1
    12    21    22    1
    13    22    23    1
    14    23    24    1
    15    24    27    1
    16    27    28    1
    17    28    29    1
    18    29    30    1
    19    30    31    1
    20    31    32    1
    21    32    33   am
    22    33    34    2
    23    24    25    1
    24    25    26    1
    25     3     4   ar
    26     4     5   ar
    27     5     6   ar
    28     6     7    1
    29     6     8   ar
    30     8     9   ar
    31     9    10   ar
    32    14    15   ar
    33    15    16   ar
    34    16    11   ar
    35    10     1   ar
    36    26    21    1
    37    10     4   ar
    38    33    29   am
    39    32    35    1
@<TRIPOS>MOLECULE
*****
 35 39 0 0 0
SMALL
GASTEIGER

@<TRIPOS>ATOM
      1 N         142.4048  141.8077  164.4606 N.ar    1  UNL1       -0.3052
      2 C         143.0992  141.1796  163.2887 C.ar    1  UNL1        0.0757
      3 C         142.7394  141.9639  162.0618 C.ar    1  UNL1       -0.0035
      4 C         141.8227  143.0768  162.4754 C.ar    1  UNL1        0.0144
      5 C         141.1495  144.1656  161.6935 C.ar    1  UNL1        0.0126
      6 C         140.2696  145.1579  162.3942 C.ar    1  UNL1        0.0578
      7 CL        139.5963  146.2468  161.6123 Cl      1  UNL1       -0.0822
      8 C         140.0627  145.0613  163.8767 C.ar    1  UNL1        0.0129
      9 C         140.7359  143.9725  164.6586 C.ar    1  UNL1        0.0184
     10 C         141.6159  142.9803  163.9579 C.ar    1  UNL1        0.0638
     11 C         142.6459  140.4183  168.7340 C.ar    1  UNL1        0.0757
     12 C         143.0042  141.8321  168.3836 C.ar    1  UNL1        0.0079
     13 C         142.9238  142.2952  166.9591 C.ar    1  UNL1        0.0177
     14 C         142.4852  141.3446  165.8850 C.ar    1  UNL1        0.0640
     15 C         142.1268  139.9307  166.2354 C.ar    1  UNL1        0.0177
     16 C         142.2072  139.4676  167.6599 C.ar    1  UNL1        0.0079
     17 C         142.7263  139.9553  170.1584 C.2     1  UNL1        0.3413
     18 O         143.4297  138.6730  170.4916 O.2     1  UNL1       -0.2449
     19 C         140.6618  141.1786  171.1541 C.3     1  UNL1        0.2560
     20 O         142.1032  140.7744  171.2497 O.3     1  UNL1       -0.4413
     21 C         143.2132  141.6845  160.6663 C.3     1  UNL1        0.0266
     22 C         143.8471  142.7766  159.8566 C.3     1  UNL1        0.0218
     23 C         144.3209  142.4972  158.4611 C.3     1  UNL1        0.0725
     24 N         144.1609  141.1256  157.8753 N.3     1  UNL1       -0.2712
     25 C         143.5270  140.0336  158.6849 C.3     1  UNL1        0.0725
     26 C         143.0532  140.3130  160.0804 C.3     1  UNL1        0.0218
     27 C         144.6347  140.8462  156.4798 C.3     1  UNL1        0.0939
     28 C         145.1754  141.9608  155.6341 C.3     1  UNL1        0.1123
     29 N         146.6088  141.9399  155.1926 N.am    1  UNL1       -0.2610
     30 C         147.1096  141.5181  153.8431 C.3     1  UNL1        0.1162
     31 C         148.6035  141.6545  153.8396 C.3     1  UNL1        0.1124
     32 N         149.0258  142.1606  155.1870 N.am    1  UNL1       -0.2870
     33 C         147.7931  142.3370  156.0233 C.2     1  UNL1        0.3041
     34 O         147.7519  142.8248  157.4411 O.2     1  UNL1       -0.2526
     35 H         149.9499  142.3448  155.4724 H       1  UNL1        0.1510
@<TRIPOS>BOND
     1    19    20    1
     2    20    17    1
     3    17    18    2
     4    17    11    1
     5    11    12   ar
     6    12    13   ar
     7    13    14   ar
     8    14     1    1
     9     1     2   ar
    10     2     3   ar
    11     3    21    1
    12    21    22    1
    13    22    23    1
    14    23    24    1
    15    24    27    1
    16    27    28    1
    17    28    29    1
    18    29    30    1
    19    30    31    1
    20    31    32    1
    21    32    33   am
    22    33    34    2
    23    24    25    1
    24    25    26    1
    25     3     4   ar
    26     4     5   ar
    27     5     6   ar
    28     6     7    1
    29     6     8   ar
    30     8     9   ar
    31     9    10   ar
    32    14    15   ar
    33    15    16   ar
    34    16    11   ar
    35    10     1   ar
    36    26    21    1
    37    10     4   ar
    38    33    29   am
    39    32    35    1
