@<TRIPOS>MOLECULE
*****
 35 38 0 0 0
SMALL
GASTEIGER

@<TRIPOS>ATOM
      1 C         141.1101  139.4861  160.8242 C.2     1  UNL1        0.0785
      2 N         141.6952  138.9342  162.0903 N.2     1  UNL1       -0.1821
      3 N         141.2923  139.8364  163.2190 N.pl3   1  UNL1       -0.2090
      4 C         140.4582  140.9459  162.6503 C.3     1  UNL1        0.1244
      5 C         140.3456  140.7293  161.1703 C.3     1  UNL1        0.0737
      6 C         139.8444  142.0738  163.4256 C.ar    1  UNL1       -0.0019
      7 C         140.6978  143.2170  163.8891 C.ar    1  UNL1       -0.0003
      8 C         140.0840  144.3449  164.6643 C.ar    1  UNL1        0.0294
      9 C         138.6169  144.3297  164.9760 C.ar    1  UNL1        0.1401
     10 F         138.0030  145.4577  165.7513 F       1  UNL1       -0.2042
     11 C         137.7635  143.1865  164.5125 C.ar    1  UNL1        0.0294
     12 C         138.3773  142.0586  163.7373 C.ar    1  UNL1       -0.0003
     13 C         141.5680  137.7216  156.7099 C.ar    1  UNL1        0.0536
     14 C         140.2015  137.8963  157.3033 C.ar    1  UNL1        0.0046
     15 C         140.0488  138.4844  158.6747 C.ar    1  UNL1        0.0014
     16 C         141.2627  138.8979  159.4528 C.ar    1  UNL1        0.0151
     17 C         142.6292  138.7233  158.8594 C.ar    1  UNL1        0.0014
     18 C         142.7819  138.1352  157.4880 C.ar    1  UNL1        0.0046
     19 N         142.1154  135.6952  155.1790 N.am    1  UNL1       -0.2729
     20 C         142.2680  135.1071  153.8075 C.3     1  UNL1        0.1152
     21 C         141.7206  137.1335  155.3385 C.2     1  UNL1        0.2491
     22 O         141.4784  137.9836  154.1267 O.2     1  UNL1       -0.2699
     23 C         142.3576  134.8450  156.3908 C.3     1  UNL1        0.1111
     24 C         143.7294  134.3044  156.6657 C.3     1  UNL1        0.0939
     25 C         145.0883  132.4879  157.9322 C.3     1  UNL1        0.0897
     26 N         143.9003  132.8803  157.1048 N.3     1  UNL1       -0.2688
     27 C         142.8831  131.8485  156.7164 C.3     1  UNL1        0.0897
     28 C         141.6591  139.6601  164.6627 C.ar    1  UNL1        0.0694
     29 C         143.0128  139.1308  165.0333 C.ar    1  UNL1        0.0170
     30 C         143.3797  138.9545  166.4770 C.ar    1  UNL1        0.0116
     31 C         142.3929  139.3074  167.5500 C.ar    1  UNL1        0.0685
     32 C         141.0392  139.8367  167.1794 C.ar    1  UNL1        0.0116
     33 C         140.6723  140.0131  165.7358 C.ar    1  UNL1        0.0170
     34 C         142.7598  139.1311  168.9938 C.1     1  UNL1        0.1004
     35 N         143.1266  138.9546  170.4375 N.1     1  UNL1       -0.1908
@<TRIPOS>BOND
     1    25    26    1
     2    26    27    1
     3    26    24    1
     4    24    23    1
     5    23    19    1
     6    19    20    1
     7    19    21   am
     8    21    22    2
     9    21    13    1
    10    13    14   ar
    11    14    15   ar
    12    15    16   ar
    13    16     1    1
    14     1     2    2
    15     2     3    1
    16     3    28    1
    17    28    29   ar
    18    29    30   ar
    19    30    31   ar
    20    31    34    1
    21    34    35    3
    22    31    32   ar
    23    32    33   ar
    24     3     4    1
    25     4     6    1
    26     6     7   ar
    27     7     8   ar
    28     8     9   ar
    29     9    10    1
    30     9    11   ar
    31    11    12   ar
    32     4     5    1
    33    16    17   ar
    34    17    18   ar
    35    18    13   ar
    36     5     1    1
    37    33    28   ar
    38    12     6   ar
@<TRIPOS>MOLECULE
*****
 35 38 0 0 0
SMALL
GASTEIGER

@<TRIPOS>ATOM
      1 C         141.1521  138.6000  159.4451 C.2     1  UNL1        0.0785
      2 N         142.1522  139.5473  160.0387 N.2     1  UNL1       -0.1821
      3 N         141.7470  139.8205  161.4569 N.pl3   1  UNL1       -0.2090
      4 C         140.4964  139.0420  161.7398 C.3     1  UNL1        0.1244
      5 C         140.1288  138.2877  160.4965 C.3     1  UNL1        0.0737
      6 C         139.7454  139.0214  163.0381 C.ar    1  UNL1       -0.0019
      7 C         139.7133  137.7711  163.8662 C.ar    1  UNL1       -0.0003
      8 C         138.9622  137.7506  165.1644 C.ar    1  UNL1        0.0294
      9 C         138.2433  138.9803  165.6345 C.ar    1  UNL1        0.1401
     10 F         137.4922  138.9598  166.9328 F       1  UNL1       -0.2042
     11 C         138.2754  140.2305  164.8064 C.ar    1  UNL1        0.0294
     12 C         139.0264  140.2511  163.5082 C.ar    1  UNL1       -0.0003
     13 C         141.2113  136.9795  155.2475 C.ar    1  UNL1        0.0536
     14 C         142.5003  137.2590  155.9618 C.ar    1  UNL1        0.0046
     15 C         142.4806  137.7992  157.3610 C.ar    1  UNL1        0.0014
     16 C         141.1718  138.0598  158.0459 C.ar    1  UNL1        0.0151
     17 C         139.8828  137.7803  157.3316 C.ar    1  UNL1        0.0014
     18 C         139.9025  137.2401  155.9324 C.ar    1  UNL1        0.0046
     19 N         141.3900  134.9661  153.6152 N.am    1  UNL1       -0.2729
     20 C         141.4097  134.4259  152.2160 C.3     1  UNL1        0.1152
     21 C         141.2310  136.4393  153.8483 C.2     1  UNL1        0.2491
     22 O         141.0918  137.3723  152.6821 O.2     1  UNL1       -0.2699
     23 C         141.5292  134.0330  154.7814 C.3     1  UNL1        0.1111
     24 C         142.8768  133.4847  155.1465 C.3     1  UNL1        0.0939
     25 C         143.5325  134.0215  157.6025 C.3     1  UNL1        0.0897
     26 N         143.1451  133.0262  156.5494 N.3     1  UNL1       -0.2688
     27 C         143.0259  131.5724  156.8990 C.3     1  UNL1        0.0897
     28 C         142.4661  140.7151  162.4226 C.ar    1  UNL1        0.0694
     29 C         143.5137  140.1471  163.3335 C.ar    1  UNL1        0.0170
     30 C         144.2328  141.0417  164.2992 C.ar    1  UNL1        0.0116
     31 C         143.9044  142.5042  164.3539 C.ar    1  UNL1        0.0685
     32 C         142.8567  143.0722  163.4430 C.ar    1  UNL1        0.0116
     33 C         142.1376  142.1777  162.4773 C.ar    1  UNL1        0.0170
     34 C         144.6235  143.3988  165.3197 C.1     1  UNL1        0.1004
     35 N         145.3427  144.2933  166.2854 N.1     1  UNL1       -0.1908
@<TRIPOS>BOND
     1    25    26    1
     2    26    27    1
     3    26    24    1
     4    24    23    1
     5    23    19    1
     6    19    20    1
     7    19    21   am
     8    21    22    2
     9    21    13    1
    10    13    14   ar
    11    14    15   ar
    12    15    16   ar
    13    16     1    1
    14     1     2    2
    15     2     3    1
    16     3    28    1
    17    28    29   ar
    18    29    30   ar
    19    30    31   ar
    20    31    34    1
    21    34    35    3
    22    31    32   ar
    23    32    33   ar
    24     3     4    1
    25     4     6    1
    26     6     7   ar
    27     7     8   ar
    28     8     9   ar
    29     9    10    1
    30     9    11   ar
    31    11    12   ar
    32     4     5    1
    33    16    17   ar
    34    17    18   ar
    35    18    13   ar
    36     5     1    1
    37    33    28   ar
    38    12     6   ar
@<TRIPOS>MOLECULE
*****
 35 38 0 0 0
SMALL
GASTEIGER

@<TRIPOS>ATOM
      1 C         141.0649  138.7787  159.8880 C.2     1  UNL1        0.0785
      2 N         140.0657  138.3145  160.9059 N.2     1  UNL1       -0.1821
      3 N         140.3837  138.9875  162.2082 N.pl3   1  UNL1       -0.2090
      4 C         141.5795  139.8677  161.9952 C.3     1  UNL1        0.1244
      5 C         142.0005  139.7387  160.5613 C.3     1  UNL1        0.0737
      6 C         142.2386  140.7262  163.0337 C.ar    1  UNL1       -0.0019
      7 C         143.1635  140.1088  164.0404 C.ar    1  UNL1       -0.0003
      8 C         143.8225  140.9674  165.0789 C.ar    1  UNL1        0.0294
      9 C         143.5567  142.4433  165.1107 C.ar    1  UNL1        0.1401
     10 F         144.2158  143.3019  166.1493 F       1  UNL1       -0.2042
     11 C         142.6319  143.0606  164.1041 C.ar    1  UNL1        0.0294
     12 C         141.9728  142.2021  163.0655 C.ar    1  UNL1       -0.0003
     13 C         141.2274  137.5137  155.5726 C.ar    1  UNL1        0.0536
     14 C         139.9046  137.6344  156.2695 C.ar    1  UNL1        0.0046
     15 C         139.8505  138.0560  157.7080 C.ar    1  UNL1        0.0014
     16 C         141.1191  138.3570  158.4495 C.ar    1  UNL1        0.0151
     17 C         142.4418  138.2364  157.7526 C.ar    1  UNL1        0.0014
     18 C         142.4960  137.8147  156.3141 C.ar    1  UNL1        0.0046
     19 N         141.4704  135.6460  153.7830 N.am    1  UNL1       -0.2729
     20 C         141.5246  135.2243  152.3445 C.3     1  UNL1        0.1152
     21 C         141.2815  137.0920  154.1341 C.2     1  UNL1        0.2491
     22 O         141.1467  138.1164  153.0467 O.2     1  UNL1       -0.2699
     23 C         141.6052  134.6216  154.8704 C.3     1  UNL1        0.1111
     24 C         142.9658  134.1606  155.3021 C.3     1  UNL1        0.0939
     25 C         142.6485  131.8818  156.5089 C.3     1  UNL1        0.0897
     26 N         143.1150  133.3072  156.5267 N.3     1  UNL1       -0.2688
     27 C         143.7307  133.8794  157.7691 C.3     1  UNL1        0.0897
     28 C         139.6371  138.8113  163.4971 C.ar    1  UNL1        0.0694
     29 C         139.6319  137.4781  164.1846 C.ar    1  UNL1        0.0170
     30 C         138.8852  137.3019  165.4736 C.ar    1  UNL1        0.0116
     31 C         138.1438  138.4587  166.0750 C.ar    1  UNL1        0.0685
     32 C         138.1489  139.7919  165.3875 C.ar    1  UNL1        0.0116
     33 C         138.8955  139.9682  164.0986 C.ar    1  UNL1        0.0170
     34 C         137.3970  138.2824  167.3640 C.1     1  UNL1        0.1004
     35 N         136.6503  138.1061  168.6529 N.1     1  UNL1       -0.1908
@<TRIPOS>BOND
     1    25    26    1
     2    26    27    1
     3    26    24    1
     4    24    23    1
     5    23    19    1
     6    19    20    1
     7    19    21   am
     8    21    22    2
     9    21    13    1
    10    13    14   ar
    11    14    15   ar
    12    15    16   ar
    13    16     1    1
    14     1     2    2
    15     2     3    1
    16     3    28    1
    17    28    29   ar
    18    29    30   ar
    19    30    31   ar
    20    31    34    1
    21    34    35    3
    22    31    32   ar
    23    32    33   ar
    24     3     4    1
    25     4     6    1
    26     6     7   ar
    27     7     8   ar
    28     8     9   ar
    29     9    10    1
    30     9    11   ar
    31    11    12   ar
    32     4     5    1
    33    16    17   ar
    34    17    18   ar
    35    18    13   ar
    36     5     1    1
    37    33    28   ar
    38    12     6   ar
@<TRIPOS>MOLECULE
*****
 35 38 0 0 0
SMALL
GASTEIGER

@<TRIPOS>ATOM
      1 C         141.4998  139.5553  160.3672 C.2     1  UNL1        0.0785
      2 N         140.8184  139.1208  161.6309 N.2     1  UNL1       -0.1821
      3 N         141.1524  140.1152  162.7031 N.pl3   1  UNL1       -0.2090
      4 C         142.0402  141.1642  162.1021 C.3     1  UNL1        0.1244
      5 C         142.2550  140.8182  160.6585 C.3     1  UNL1        0.0737
      6 C         142.6129  142.3509  162.8190 C.ar    1  UNL1       -0.0019
      7 C         141.9739  143.6995  162.6663 C.ar    1  UNL1       -0.0003
      8 C         142.5466  144.8861  163.3832 C.ar    1  UNL1        0.0294
      9 C         143.7581  144.7243  164.2526 C.ar    1  UNL1        0.1401
     10 F         144.3308  145.9110  164.9694 F       1  UNL1       -0.2042
     11 C         144.3970  143.3758  164.4052 C.ar    1  UNL1        0.0294
     12 C         143.8244  142.1891  163.6884 C.ar    1  UNL1       -0.0003
     13 C         141.3117  137.4413  156.3991 C.ar    1  UNL1        0.0536
     14 C         142.6294  137.9204  156.9319 C.ar    1  UNL1        0.0046
     15 C         142.6922  138.6250  158.2546 C.ar    1  UNL1        0.0014
     16 C         141.4371  138.8507  159.0445 C.ar    1  UNL1        0.0151
     17 C         140.1193  138.3716  158.5116 C.ar    1  UNL1        0.0014
     18 C         140.0566  137.6670  157.1889 C.ar    1  UNL1        0.0046
     19 N         141.7344  135.3225  154.9562 N.am    1  UNL1       -0.2729
     20 C         141.6717  134.6179  153.6335 C.3     1  UNL1        0.1152
     21 C         141.2490  136.7367  155.0764 C.2     1  UNL1        0.2491
     22 O         140.7009  137.4462  153.8739 O.2     1  UNL1       -0.2699
     23 C         142.2826  134.6130  156.1588 C.3     1  UNL1        0.1111
     24 C         143.7548  134.3470  156.2663 C.3     1  UNL1        0.0939
     25 C         144.1244  131.8681  155.5818 C.3     1  UNL1        0.0897
     26 N         144.2460  132.9681  156.5943 N.3     1  UNL1       -0.2688
     27 C         144.8587  132.6893  157.9347 C.3     1  UNL1        0.0897
     28 C         140.6812  140.0686  164.1264 C.ar    1  UNL1        0.0694
     29 C         141.6370  139.6964  165.2210 C.ar    1  UNL1        0.0170
     30 C         141.1658  139.6498  166.6443 C.ar    1  UNL1        0.0116
     31 C         139.7390  139.9754  166.9730 C.ar    1  UNL1        0.0685
     32 C         138.7833  140.3476  165.8785 C.ar    1  UNL1        0.0116
     33 C         139.2544  140.3942  164.4552 C.ar    1  UNL1        0.0170
     34 C         139.2679  139.9288  168.3964 C.1     1  UNL1        0.1004
     35 N         138.7968  139.8823  169.8198 N.1     1  UNL1       -0.1908
@<TRIPOS>BOND
     1    25    26    1
     2    26    27    1
     3    26    24    1
     4    24    23    1
     5    23    19    1
     6    19    20    1
     7    19    21   am
     8    21    22    2
     9    21    13    1
    10    13    14   ar
    11    14    15   ar
    12    15    16   ar
    13    16     1    1
    14     1     2    2
    15     2     3    1
    16     3    28    1
    17    28    29   ar
    18    29    30   ar
    19    30    31   ar
    20    31    34    1
    21    34    35    3
    22    31    32   ar
    23    32    33   ar
    24     3     4    1
    25     4     6    1
    26     6     7   ar
    27     7     8   ar
    28     8     9   ar
    29     9    10    1
    30     9    11   ar
    31    11    12   ar
    32     4     5    1
    33    16    17   ar
    34    17    18   ar
    35    18    13   ar
    36     5     1    1
    37    33    28   ar
    38    12     6   ar
@<TRIPOS>MOLECULE
*****
 35 38 0 0 0
SMALL
GASTEIGER

@<TRIPOS>ATOM
      1 C         143.1223  138.6710  160.5610 C.2     1  UNL1        0.0785
      2 N         142.7530  137.5134  159.6814 N.2     1  UNL1       -0.1821
      3 N         142.8291  137.9721  158.2553 N.pl3   1  UNL1       -0.2090
      4 C         143.2454  139.4132  158.2535 C.3     1  UNL1        0.1244
      5 C         143.4265  139.8451  159.6785 C.3     1  UNL1        0.0737
      6 C         143.4454  140.2716  157.0398 C.ar    1  UNL1       -0.0019
      7 C         142.2581  140.8150  156.3015 C.ar    1  UNL1       -0.0003
      8 C         142.4581  141.6734  155.0879 C.ar    1  UNL1        0.0294
      9 C         143.8454  141.9885  154.6125 C.ar    1  UNL1        0.1401
     10 F         144.0455  142.8470  153.3988 F       1  UNL1       -0.2042
     11 C         145.0327  141.4452  155.3507 C.ar    1  UNL1        0.0294
     12 C         144.8327  140.5868  156.5644 C.ar    1  UNL1       -0.0003
     13 C         143.2879  138.6287  165.0578 C.ar    1  UNL1        0.0536
     14 C         142.1762  137.9209  164.3416 C.ar    1  UNL1        0.0046
     15 C         142.1210  137.9350  162.8426 C.ar    1  UNL1        0.0014
     16 C         143.1775  138.6569  162.0600 C.ar    1  UNL1        0.0151
     17 C         144.2892  139.3647  162.7762 C.ar    1  UNL1        0.0014
     18 C         144.3444  139.3506  164.2751 C.ar    1  UNL1        0.0046
     19 N         142.5456  139.6100  167.3460 N.am    1  UNL1       -0.2729
     20 C         142.6008  139.5960  168.8449 C.3     1  UNL1        0.1152
     21 C         143.3432  138.6147  166.5567 C.2     1  UNL1        0.2491
     22 O         144.1960  137.6052  167.2663 O.2     1  UNL1       -0.2699
     23 C         141.6927  140.6196  166.6364 C.3     1  UNL1        0.1111
     24 C         142.2030  142.0135  166.4207 C.3     1  UNL1        0.0939
     25 C         143.9397  143.2164  164.9084 C.3     1  UNL1        0.0897
     26 N         142.6646  142.4409  165.0589 N.3     1  UNL1       -0.2688
     27 C         141.8511  142.0928  163.8477 C.3     1  UNL1        0.0897
     28 C         142.5398  137.1364  157.0437 C.ar    1  UNL1        0.0694
     29 C         141.1384  137.0374  156.5183 C.ar    1  UNL1        0.0170
     30 C         140.8490  136.2017  155.3067 C.ar    1  UNL1        0.0116
     31 C         141.9610  135.4651  154.6207 C.ar    1  UNL1        0.0685
     32 C         143.3624  135.5642  155.1461 C.ar    1  UNL1        0.0116
     33 C         143.6519  136.3998  156.3577 C.ar    1  UNL1        0.0170
     34 C         141.6716  134.6294  153.4090 C.1     1  UNL1        0.1004
     35 N         141.3822  133.7937  152.1975 N.1     1  UNL1       -0.1908
@<TRIPOS>BOND
     1    25    26    1
     2    26    27    1
     3    26    24    1
     4    24    23    1
     5    23    19    1
     6    19    20    1
     7    19    21   am
     8    21    22    2
     9    21    13    1
    10    13    14   ar
    11    14    15   ar
    12    15    16   ar
    13    16     1    1
    14     1     2    2
    15     2     3    1
    16     3    28    1
    17    28    29   ar
    18    29    30   ar
    19    30    31   ar
    20    31    34    1
    21    34    35    3
    22    31    32   ar
    23    32    33   ar
    24     3     4    1
    25     4     6    1
    26     6     7   ar
    27     7     8   ar
    28     8     9   ar
    29     9    10    1
    30     9    11   ar
    31    11    12   ar
    32     4     5    1
    33    16    17   ar
    34    17    18   ar
    35    18    13   ar
    36     5     1    1
    37    33    28   ar
    38    12     6   ar
@<TRIPOS>MOLECULE
*****
 35 38 0 0 0
SMALL
GASTEIGER

@<TRIPOS>ATOM
      1 C         140.1656  142.8468  161.9398 C.2     1  UNL1        0.0785
      2 N         140.7707  143.3593  163.2130 N.2     1  UNL1       -0.1821
      3 N         140.4866  142.3611  164.2960 N.pl3   1  UNL1       -0.2090
      4 C         139.7059  141.2316  163.6921 C.3     1  UNL1        0.1244
      5 C         139.5075  141.5318  162.2358 C.3     1  UNL1        0.0737
      6 C         139.2105  140.0155  164.4170 C.ar    1  UNL1       -0.0019
      7 C         138.4121  140.1672  165.6778 C.ar    1  UNL1       -0.0003
      8 C         137.9168  138.9510  166.4027 C.ar    1  UNL1        0.0294
      9 C         138.2198  137.5832  165.8668 C.ar    1  UNL1        0.1401
     10 F         137.7244  136.3669  166.5918 F       1  UNL1       -0.2042
     11 C         139.0181  137.4315  164.6061 C.ar    1  UNL1        0.0294
     12 C         139.5135  138.6476  163.8811 C.ar    1  UNL1       -0.0003
     13 C         140.3009  144.8946  157.9350 C.ar    1  UNL1        0.0536
     14 C         141.0517  145.4718  159.0983 C.ar    1  UNL1        0.0046
     15 C         141.0066  144.7892  160.4332 C.ar    1  UNL1        0.0014
     16 C         140.2107  143.5294  160.6048 C.ar    1  UNL1        0.0151
     17 C         139.4600  142.9522  159.4416 C.ar    1  UNL1        0.0014
     18 C         139.5051  143.6349  158.1067 C.ar    1  UNL1        0.0046
     19 N         141.4385  145.2487  155.6263 N.am    1  UNL1       -0.2729
     20 C         141.4836  145.9313  154.2913 C.3     1  UNL1        0.1152
     21 C         140.3460  145.5773  156.6001 C.2     1  UNL1        0.2491
     22 O         139.2986  146.5884  156.2390 O.2     1  UNL1       -0.2699
     23 C         142.4861  144.2375  155.9873 C.3     1  UNL1        0.1111
     24 C         142.2156  142.7751  155.7921 C.3     1  UNL1        0.0939
     25 C         143.0108  142.2762  158.2147 C.3     1  UNL1        0.0897
     26 N         142.6120  141.7910  156.8525 N.3     1  UNL1       -0.2688
     27 C         142.6097  140.3216  156.5507 C.3     1  UNL1        0.0897
     28 C         140.9090  142.4727  165.7309 C.ar    1  UNL1        0.0694
     29 C         142.2654  141.9912  166.1531 C.ar    1  UNL1        0.0170
     30 C         142.6879  142.1028  167.5880 C.ar    1  UNL1        0.0116
     31 C         141.7539  142.6961  168.6007 C.ar    1  UNL1        0.0685
     32 C         140.3975  143.1776  168.1786 C.ar    1  UNL1        0.0116
     33 C         139.9751  143.0660  166.7437 C.ar    1  UNL1        0.0170
     34 C         142.1764  142.8077  170.0358 C.1     1  UNL1        0.1004
     35 N         142.5989  142.9193  171.4707 N.1     1  UNL1       -0.1908
@<TRIPOS>BOND
     1    25    26    1
     2    26    27    1
     3    26    24    1
     4    24    23    1
     5    23    19    1
     6    19    20    1
     7    19    21   am
     8    21    22    2
     9    21    13    1
    10    13    14   ar
    11    14    15   ar
    12    15    16   ar
    13    16     1    1
    14     1     2    2
    15     2     3    1
    16     3    28    1
    17    28    29   ar
    18    29    30   ar
    19    30    31   ar
    20    31    34    1
    21    34    35    3
    22    31    32   ar
    23    32    33   ar
    24     3     4    1
    25     4     6    1
    26     6     7   ar
    27     7     8   ar
    28     8     9   ar
    29     9    10    1
    30     9    11   ar
    31    11    12   ar
    32     4     5    1
    33    16    17   ar
    34    17    18   ar
    35    18    13   ar
    36     5     1    1
    37    33    28   ar
    38    12     6   ar
@<TRIPOS>MOLECULE
*****
 35 38 0 0 0
SMALL
GASTEIGER

@<TRIPOS>ATOM
      1 C         141.2622  138.6899  159.2267 C.2     1  UNL1        0.0785
      2 N         141.7770  138.2481  160.5646 N.2     1  UNL1       -0.1821
      3 N         141.4179  139.3014  161.5703 N.pl3   1  UNL1       -0.2090
      4 C         140.6812  140.3942  160.8541 C.3     1  UNL1        0.1244
      5 C         140.5850  140.0163  159.4057 C.3     1  UNL1        0.0737
      6 C         140.1364  141.6453  161.4769 C.ar    1  UNL1       -0.0019
      7 C         138.6551  141.8209  161.6349 C.ar    1  UNL1       -0.0003
      8 C         138.1103  143.0719  162.2576 C.ar    1  UNL1        0.0294
      9 C         139.0468  144.1475  162.7225 C.ar    1  UNL1        0.1401
     10 F         138.5020  145.3987  163.3453 F       1  UNL1       -0.2042
     11 C         140.5280  143.9720  162.5645 C.ar    1  UNL1        0.0294
     12 C         141.0729  142.7209  161.9417 C.ar    1  UNL1       -0.0003
     13 C         141.6769  136.4325  155.3560 C.ar    1  UNL1        0.0536
     14 C         140.3205  136.8587  155.8341 C.ar    1  UNL1        0.0046
     15 C         140.1823  137.6112  157.1243 C.ar    1  UNL1        0.0014
     16 C         141.4005  137.9374  157.9365 C.ar    1  UNL1        0.0151
     17 C         142.7568  137.5112  157.4584 C.ar    1  UNL1        0.0014
     18 C         142.8950  136.7588  156.1682 C.ar    1  UNL1        0.0046
     19 N         141.7486  134.1816  154.0606 N.am    1  UNL1       -0.2729
     20 C         141.8868  133.4291  152.7704 C.3     1  UNL1        0.1152
     21 C         141.8151  135.6801  154.0658 C.2     1  UNL1        0.2491
     22 O         142.0198  136.4261  152.7807 O.2     1  UNL1       -0.2699
     23 C         141.5438  133.4355  155.3458 C.3     1  UNL1        0.1111
     24 C         142.4205  132.2656  155.6816 C.3     1  UNL1        0.0939
     25 C         144.8855  131.6342  156.2061 C.3     1  UNL1        0.0897
     26 N         143.6721  132.4717  156.4823 N.3     1  UNL1       -0.2688
     27 C         143.7103  133.5152  157.5591 C.3     1  UNL1        0.0897
     28 C         141.7391  139.2678  163.0352 C.ar    1  UNL1        0.0694
     29 C         143.1682  139.2910  163.4903 C.ar    1  UNL1        0.0170
     30 C         143.4894  139.2573  164.9551 C.ar    1  UNL1        0.0116
     31 C         142.3816  139.2005  165.9647 C.ar    1  UNL1        0.0685
     32 C         140.9525  139.1773  165.5096 C.ar    1  UNL1        0.0116
     33 C         140.6312  139.2109  164.0448 C.ar    1  UNL1        0.0170
     34 C         142.7029  139.1669  167.4296 C.1     1  UNL1        0.1004
     35 N         143.0242  139.1333  168.8944 N.1     1  UNL1       -0.1908
@<TRIPOS>BOND
     1    25    26    1
     2    26    27    1
     3    26    24    1
     4    24    23    1
     5    23    19    1
     6    19    20    1
     7    19    21   am
     8    21    22    2
     9    21    13    1
    10    13    14   ar
    11    14    15   ar
    12    15    16   ar
    13    16     1    1
    14     1     2    2
    15     2     3    1
    16     3    28    1
    17    28    29   ar
    18    29    30   ar
    19    30    31   ar
    20    31    34    1
    21    34    35    3
    22    31    32   ar
    23    32    33   ar
    24     3     4    1
    25     4     6    1
    26     6     7   ar
    27     7     8   ar
    28     8     9   ar
    29     9    10    1
    30     9    11   ar
    31    11    12   ar
    32     4     5    1
    33    16    17   ar
    34    17    18   ar
    35    18    13   ar
    36     5     1    1
    37    33    28   ar
    38    12     6   ar
@<TRIPOS>MOLECULE
*****
 35 38 0 0 0
SMALL
GASTEIGER

@<TRIPOS>ATOM
      1 C         140.7645  142.4499  161.7434 C.2     1  UNL1        0.0785
      2 N         141.3306  143.0167  163.0116 N.2     1  UNL1       -0.1821
      3 N         140.9249  142.1185  164.1424 N.pl3   1  UNL1       -0.2090
      4 C         140.1082  140.9966  163.5731 C.3     1  UNL1        0.1244
      5 C         140.0090  141.2014  162.0904 C.3     1  UNL1        0.0737
      6 C         139.4977  139.8680  164.3500 C.ar    1  UNL1       -0.0019
      7 C         138.5252  140.1576  165.4547 C.ar    1  UNL1       -0.0003
      8 C         137.9148  139.0290  166.2315 C.ar    1  UNL1        0.0294
      9 C         138.2769  137.6107  165.9037 C.ar    1  UNL1        0.1401
     10 F         137.6664  136.4820  166.6806 F       1  UNL1       -0.2042
     11 C         139.2493  137.3211  164.7991 C.ar    1  UNL1        0.0294
     12 C         139.8598  138.4497  164.0222 C.ar    1  UNL1       -0.0003
     13 C         141.2479  144.1896  157.6215 C.ar    1  UNL1        0.0536
     14 C         141.4414  142.7186  157.8422 C.ar    1  UNL1        0.0046
     15 C         141.2802  142.1387  159.2161 C.ar    1  UNL1        0.0014
     16 C         140.9256  143.0298  160.3694 C.ar    1  UNL1        0.0151
     17 C         140.7321  144.5008  160.1488 C.ar    1  UNL1        0.0014
     18 C         140.8932  145.0806  158.7748 C.ar    1  UNL1        0.0046
     19 N         140.2011  145.0309  155.3975 N.am    1  UNL1       -0.2729
     20 C         140.3623  145.6108  154.0235 C.3     1  UNL1        0.1152
     21 C         141.4090  144.7694  156.2475 C.2     1  UNL1        0.2491
     22 O         142.7780  145.0879  155.7237 O.2     1  UNL1       -0.2699
     23 C         138.8321  144.7125  155.9213 C.3     1  UNL1        0.1111
     24 C         138.1361  143.4569  155.4867 C.3     1  UNL1        0.0939
     25 C         138.6422  140.9217  155.7453 C.3     1  UNL1        0.0897
     26 N         138.2050  142.2266  156.3421 N.3     1  UNL1       -0.2688
     27 C         137.8368  142.3012  157.7943 C.3     1  UNL1        0.0897
     28 C         141.2747  142.3089  165.5886 C.ar    1  UNL1        0.0694
     29 C         140.2440  142.8264  166.5476 C.ar    1  UNL1        0.0170
     30 C         140.5937  143.0167  167.9938 C.ar    1  UNL1        0.0116
     31 C         141.9741  142.6896  168.4809 C.ar    1  UNL1        0.0685
     32 C         143.0048  142.1721  167.5218 C.ar    1  UNL1        0.0116
     33 C         142.6552  141.9817  166.0757 C.ar    1  UNL1        0.0170
     34 C         142.3238  142.8800  169.9271 C.1     1  UNL1        0.1004
     35 N         142.6736  143.0703  171.3733 N.1     1  UNL1       -0.1908
@<TRIPOS>BOND
     1    25    26    1
     2    26    27    1
     3    26    24    1
     4    24    23    1
     5    23    19    1
     6    19    20    1
     7    19    21   am
     8    21    22    2
     9    21    13    1
    10    13    14   ar
    11    14    15   ar
    12    15    16   ar
    13    16     1    1
    14     1     2    2
    15     2     3    1
    16     3    28    1
    17    28    29   ar
    18    29    30   ar
    19    30    31   ar
    20    31    34    1
    21    34    35    3
    22    31    32   ar
    23    32    33   ar
    24     3     4    1
    25     4     6    1
    26     6     7   ar
    27     7     8   ar
    28     8     9   ar
    29     9    10    1
    30     9    11   ar
    31    11    12   ar
    32     4     5    1
    33    16    17   ar
    34    17    18   ar
    35    18    13   ar
    36     5     1    1
    37    33    28   ar
    38    12     6   ar
@<TRIPOS>MOLECULE
*****
 35 38 0 0 0
SMALL
GASTEIGER

@<TRIPOS>ATOM
      1 C         140.6411  141.8885  161.5988 C.2     1  UNL1        0.0785
      2 N         141.2355  142.5451  162.8094 N.2     1  UNL1       -0.1821
      3 N         140.8280  141.7507  164.0147 N.pl3   1  UNL1       -0.2090
      4 C         139.9816  140.6031  163.5491 C.3     1  UNL1        0.1244
      5 C         139.8661  140.6883  162.0559 C.3     1  UNL1        0.0737
      6 C         139.3599  139.5545  164.4230 C.ar    1  UNL1       -0.0019
      7 C         139.6637  138.1047  164.1869 C.ar    1  UNL1       -0.0003
      8 C         139.0420  137.0562  165.0609 C.ar    1  UNL1        0.0294
      9 C         138.1165  137.4573  166.1710 C.ar    1  UNL1        0.1401
     10 F         137.4948  136.4087  167.0451 F       1  UNL1       -0.2042
     11 C         137.8127  138.9071  166.4072 C.ar    1  UNL1        0.0294
     12 C         138.4344  139.9557  165.5332 C.ar    1  UNL1       -0.0003
     13 C         141.1017  143.2758  157.3428 C.ar    1  UNL1        0.0536
     14 C         139.8048  142.6768  157.8002 C.ar    1  UNL1        0.0046
     15 C         139.6513  142.2144  159.2188 C.ar    1  UNL1        0.0014
     16 C         140.7946  142.3509  160.1801 C.ar    1  UNL1        0.0151
     17 C         142.0915  142.9499  159.7227 C.ar    1  UNL1        0.0014
     18 C         142.2451  143.4123  158.3040 C.ar    1  UNL1        0.0046
     19 N         141.0489  145.1834  155.5799 N.am    1  UNL1       -0.2729
     20 C         141.2024  145.6459  154.1612 C.3     1  UNL1        0.1152
     21 C         141.2553  143.7382  155.9241 C.2     1  UNL1        0.2491
     22 O         141.6152  142.7553  154.8497 O.2     1  UNL1       -0.2699
     23 C         140.6889  146.1664  156.6543 C.3     1  UNL1        0.1111
     24 C         139.2970  146.7206  156.7281 C.3     1  UNL1        0.0939
     25 C         138.3839  149.1116  157.1748 C.3     1  UNL1        0.0897
     26 N         139.0187  148.1151  156.2506 N.3     1  UNL1       -0.2688
     27 C         139.3751  148.5131  154.8490 C.3     1  UNL1        0.0897
     28 C         141.2012  142.0511  165.4361 C.ar    1  UNL1        0.0694
     29 C         140.1772  142.6117  166.3780 C.ar    1  UNL1        0.0170
     30 C         140.5504  142.9121  167.7994 C.ar    1  UNL1        0.0116
     31 C         141.9476  142.6520  168.2789 C.ar    1  UNL1        0.0685
     32 C         142.9717  142.0915  167.3370 C.ar    1  UNL1        0.0116
     33 C         142.5985  141.7910  165.9157 C.ar    1  UNL1        0.0170
     34 C         142.3209  142.9525  169.7004 C.1     1  UNL1        0.1004
     35 N         142.6941  143.2529  171.1218 N.1     1  UNL1       -0.1908
@<TRIPOS>BOND
     1    25    26    1
     2    26    27    1
     3    26    24    1
     4    24    23    1
     5    23    19    1
     6    19    20    1
     7    19    21   am
     8    21    22    2
     9    21    13    1
    10    13    14   ar
    11    14    15   ar
    12    15    16   ar
    13    16     1    1
    14     1     2    2
    15     2     3    1
    16     3    28    1
    17    28    29   ar
    18    29    30   ar
    19    30    31   ar
    20    31    34    1
    21    34    35    3
    22    31    32   ar
    23    32    33   ar
    24     3     4    1
    25     4     6    1
    26     6     7   ar
    27     7     8   ar
    28     8     9   ar
    29     9    10    1
    30     9    11   ar
    31    11    12   ar
    32     4     5    1
    33    16    17   ar
    34    17    18   ar
    35    18    13   ar
    36     5     1    1
    37    33    28   ar
    38    12     6   ar
