@<TRIPOS>MOLECULE
*****
 35 40 0 0 0
SMALL
GASTEIGER

@<TRIPOS>ATOM
      1 C         141.7342  140.0621  169.9471 C.3     1  UNL1        0.0178
      2 C         142.4195  139.0808  169.0429 C.3     1  UNL1        0.0095
      3 C         142.9356  139.5259  167.7067 C.3     1  UNL1        0.0692
      4 O         144.3810  137.4420  167.1427 O.2     1  UNL1       -0.2913
      5 C         143.4203  138.5112  166.7140 C.2     1  UNL1        0.1730
      6 C         142.9443  138.5658  165.2925 C.ar    1  UNL1        0.0342
      7 C         141.5343  138.1786  164.9583 C.ar    1  UNL1       -0.0002
      8 C         141.0583  138.2332  163.5369 C.ar    1  UNL1       -0.0082
      9 C         141.9924  138.6750  162.4496 C.ar    1  UNL1        0.0459
     10 C         143.4025  139.0623  162.7838 C.ar    1  UNL1       -0.0070
     11 C         143.8785  139.0077  164.2052 C.ar    1  UNL1       -0.0002
     12 C         144.0899  139.4545  161.5095 C.3     1  UNL1        0.0495
     13 C         143.1046  139.3097  160.3879 C.3     1  UNL1        0.1029
     14 N         141.8083  138.8279  160.9688 N.am    1  UNL1       -0.2589
     15 C         140.3945  138.4418  160.6187 C.2     1  UNL1        0.2297
     16 O         140.0626  138.5462  159.1595 O.2     1  UNL1       -0.2745
     17 C         139.3517  137.9824  161.5941 C.3     1  UNL1        0.0903
     18 C         139.6836  137.8780  163.0532 C.3     1  UNL1        0.0372
     19 C         140.3507  140.5420  169.6218 C.3     1  UNL1        0.0721
     20 N         139.9355  140.7196  168.1914 N.3     1  UNL1       -0.2727
     21 C         139.1190  139.6614  167.5105 C.3     1  UNL1        0.0725
     22 C         138.7038  139.8389  166.0801 C.3     1  UNL1        0.0234
     23 C         139.1051  141.0747  165.3306 C.3     1  UNL1        0.0464
     24 C         139.9216  142.1329  166.0114 C.3     1  UNL1        0.0234
     25 C         140.3368  141.9553  167.4418 C.3     1  UNL1        0.0725
     26 C         138.6899  141.2524  163.9001 C.ar    1  UNL1        0.1003
     27 N         137.3115  141.0373  163.3490 N.ar    1  UNL1       -0.0814
     28 O         137.3499  141.3283  161.8780 O.2     1  UNL1       -0.3536
     29 C         138.7519  141.7231  161.5200 C.ar    1  UNL1        0.1787
     30 C         139.3816  142.1193  160.2175 C.ar    1  UNL1        0.0698
     31 C         140.8394  142.4685  160.1647 C.ar    1  UNL1        0.1433
     32 F         141.4691  142.8648  158.8621 F       1  UNL1       -0.2041
     33 C         141.6676  142.4216  161.4145 C.ar    1  UNL1        0.0299
     34 C         141.0380  142.0254  162.7170 C.ar    1  UNL1        0.0067
     35 C         139.5801  141.6762  162.7698 C.ar    1  UNL1        0.0540
@<TRIPOS>BOND
     1     4     5    2
     2     5     3    1
     3     3     2    1
     4     2     1    1
     5     1    19    1
     6    19    20    1
     7    20    21    1
     8    21    22    1
     9    22    23    1
    10    23    26    1
    11    26    27   ar
    12    27    28   ar
    13    28    29   ar
    14    29    30   ar
    15    30    31   ar
    16    31    32    1
    17    31    33   ar
    18    33    34   ar
    19    34    35   ar
    20    23    24    1
    21    24    25    1
    22     5     6    1
    23     6     7   ar
    24     7     8   ar
    25     8     9   ar
    26     9    10   ar
    27    10    11   ar
    28    10    12    1
    29    12    13    1
    30    13    14    1
    31    14    15   am
    32    15    16    2
    33    15    17    1
    34    17    18    1
    35    25    20    1
    36    11     6   ar
    37    35    26   ar
    38    18     8    1
    39    35    29   ar
    40    14     9    1
@<TRIPOS>MOLECULE
*****
 35 40 0 0 0
SMALL
GASTEIGER

@<TRIPOS>ATOM
      1 C         141.6955  139.9794  169.8686 C.3     1  UNL1        0.0178
      2 C         142.4774  139.0291  169.0110 C.3     1  UNL1        0.0095
      3 C         142.9253  139.4489  167.6424 C.3     1  UNL1        0.0692
      4 O         144.3696  137.3636  167.0809 O.2     1  UNL1       -0.2913
      5 C         143.3913  138.4186  166.6568 C.2     1  UNL1        0.1730
      6 C         142.8791  138.4434  165.2471 C.ar    1  UNL1        0.0342
      7 C         143.7869  138.8551  164.1264 C.ar    1  UNL1       -0.0002
      8 C         143.2747  138.8799  162.7168 C.ar    1  UNL1       -0.0082
      9 C         141.8546  138.4929  162.4280 C.ar    1  UNL1        0.0459
     10 C         140.9466  138.0812  163.5487 C.ar    1  UNL1       -0.0070
     11 C         141.4588  138.0564  164.9584 C.ar    1  UNL1       -0.0002
     12 C         139.6050  137.7551  162.9625 C.3     1  UNL1        0.0495
     13 C         139.6838  137.9653  161.4794 C.3     1  UNL1        0.1029
     14 N         141.0741  138.4213  161.1490 N.am    1  UNL1       -0.2589
     15 C         141.9748  138.8327  160.0134 C.2     1  UNL1        0.2297
     16 O         141.3249  138.8092  158.6617 O.2     1  UNL1       -0.2745
     17 C         143.4111  139.2439  160.1480 C.3     1  UNL1        0.0903
     18 C         144.0610  139.2675  161.4997 C.3     1  UNL1        0.0372
     19 C         140.2650  140.2856  169.5369 C.3     1  UNL1        0.0721
     20 N         139.8590  140.5186  168.1118 N.3     1  UNL1       -0.2727
     21 C         138.9969  139.5157  167.4040 C.3     1  UNL1        0.0725
     22 C         138.5909  139.7487  165.9789 C.3     1  UNL1        0.0234
     23 C         139.0471  140.9845  165.2615 C.3     1  UNL1        0.0464
     24 C         139.9092  141.9874  165.9693 C.3     1  UNL1        0.0234
     25 C         140.3152  141.7544  167.3944 C.3     1  UNL1        0.0725
     26 C         138.6411  141.2176  163.8364 C.ar    1  UNL1        0.1003
     27 N         137.2500  141.1061  163.2865 N.ar    1  UNL1       -0.0814
     28 O         137.3042  141.4226  161.8213 O.2     1  UNL1       -0.3536
     29 C         138.7286  141.7297  161.4657 C.ar    1  UNL1        0.1787
     30 C         139.3801  142.1083  160.1686 C.ar    1  UNL1        0.0698
     31 C         140.8579  142.3603  160.1171 C.ar    1  UNL1        0.1433
     32 F         141.5094  142.7389  158.8201 F       1  UNL1       -0.2041
     33 C         141.6842  142.2335  161.3626 C.ar    1  UNL1        0.0299
     34 C         141.0327  141.8549  162.6595 C.ar    1  UNL1        0.0067
     35 C         139.5549  141.6029  162.7111 C.ar    1  UNL1        0.0540
@<TRIPOS>BOND
     1     4     5    2
     2     5     3    1
     3     3     2    1
     4     2     1    1
     5     1    19    1
     6    19    20    1
     7    20    21    1
     8    21    22    1
     9    22    23    1
    10    23    26    1
    11    26    27   ar
    12    27    28   ar
    13    28    29   ar
    14    29    30   ar
    15    30    31   ar
    16    31    32    1
    17    31    33   ar
    18    33    34   ar
    19    34    35   ar
    20    23    24    1
    21    24    25    1
    22     5     6    1
    23     6     7   ar
    24     7     8   ar
    25     8     9   ar
    26     9    10   ar
    27    10    11   ar
    28    10    12    1
    29    12    13    1
    30    13    14    1
    31    14    15   am
    32    15    16    2
    33    15    17    1
    34    17    18    1
    35    25    20    1
    36    11     6   ar
    37    35    26   ar
    38    18     8    1
    39    35    29   ar
    40    14     9    1
@<TRIPOS>MOLECULE
*****
 35 40 0 0 0
SMALL
GASTEIGER

@<TRIPOS>ATOM
      1 C         137.8827  139.6017  160.2157 C.3     1  UNL1        0.0178
      2 C         138.7226  140.1034  159.0787 C.3     1  UNL1        0.0095
      3 C         139.7878  141.1294  159.3288 C.3     1  UNL1        0.0692
      4 O         138.3672  143.0164  160.4111 O.2     1  UNL1       -0.2913
      5 C         139.5989  142.1604  160.4018 C.2     1  UNL1        0.1730
      6 C         140.6418  142.3353  161.4658 C.ar    1  UNL1        0.0342
      7 C         141.1059  143.7111  161.8421 C.ar    1  UNL1       -0.0002
      8 C         142.1488  143.8860  162.9059 C.ar    1  UNL1       -0.0082
      9 C         142.7276  142.6851  163.5935 C.ar    1  UNL1        0.0459
     10 C         142.2635  141.3092  163.2171 C.ar    1  UNL1       -0.0070
     11 C         141.2206  141.1343  162.1533 C.ar    1  UNL1       -0.0002
     12 C         143.0105  140.3207  164.0625 C.3     1  UNL1        0.0495
     13 C         143.9363  141.0856  164.9613 C.3     1  UNL1        0.1029
     14 N         143.7614  142.5469  164.6714 N.am    1  UNL1       -0.2589
     15 C         144.2370  143.9230  165.0596 C.2     1  UNL1        0.2297
     16 O         145.2811  143.9414  166.1364 O.2     1  UNL1       -0.2745
     17 C         143.7523  145.2109  164.4627 C.3     1  UNL1        0.0903
     18 C         142.7082  145.1924  163.3859 C.3     1  UNL1        0.0372
     19 C         138.4256  138.5568  161.1450 C.3     1  UNL1        0.0721
     20 N         138.5760  138.8584  162.6067 N.3     1  UNL1       -0.2727
     21 C         137.9271  140.0777  163.1916 C.3     1  UNL1        0.0725
     22 C         138.0775  140.3793  164.6532 C.3     1  UNL1        0.0234
     23 C         138.8767  139.4614  165.5300 C.3     1  UNL1        0.0464
     24 C         139.5256  138.2421  164.9452 C.3     1  UNL1        0.0234
     25 C         139.3752  137.9405  163.4835 C.3     1  UNL1        0.0725
     26 C         139.0272  139.7629  166.9917 C.ar    1  UNL1        0.1003
     27 N         138.2612  139.1177  168.1084 N.ar    1  UNL1       -0.0814
     28 O         138.7306  139.7185  169.4001 O.2     1  UNL1       -0.3536
     29 C         139.7866  140.7350  169.0819 C.ar    1  UNL1        0.1787
     30 C         140.6051  141.6392  169.9551 C.ar    1  UNL1        0.0698
     31 C         141.6069  142.5708  169.3399 C.ar    1  UNL1        0.1433
     32 F         142.4254  143.4750  170.2132 F       1  UNL1       -0.2041
     33 C         141.7902  142.5982  167.8514 C.ar    1  UNL1        0.0299
     34 C         140.9718  141.6941  166.9781 C.ar    1  UNL1        0.0067
     35 C         139.9700  140.7624  167.5934 C.ar    1  UNL1        0.0540
@<TRIPOS>BOND
     1     4     5    2
     2     5     3    1
     3     3     2    1
     4     2     1    1
     5     1    19    1
     6    19    20    1
     7    20    21    1
     8    21    22    1
     9    22    23    1
    10    23    26    1
    11    26    27   ar
    12    27    28   ar
    13    28    29   ar
    14    29    30   ar
    15    30    31   ar
    16    31    32    1
    17    31    33   ar
    18    33    34   ar
    19    34    35   ar
    20    23    24    1
    21    24    25    1
    22     5     6    1
    23     6     7   ar
    24     7     8   ar
    25     8     9   ar
    26     9    10   ar
    27    10    11   ar
    28    10    12    1
    29    12    13    1
    30    13    14    1
    31    14    15   am
    32    15    16    2
    33    15    17    1
    34    17    18    1
    35    25    20    1
    36    11     6   ar
    37    35    26   ar
    38    18     8    1
    39    35    29   ar
    40    14     9    1
@<TRIPOS>MOLECULE
*****
 35 40 0 0 0
SMALL
GASTEIGER

@<TRIPOS>ATOM
      1 C         141.7482  141.0310  170.9604 C.3     1  UNL1        0.0178
      2 C         141.6852  142.4749  170.5589 C.3     1  UNL1        0.0095
      3 C         141.1823  142.8535  169.1974 C.3     1  UNL1        0.0692
      4 O         143.5757  142.6384  168.2100 O.2     1  UNL1       -0.2913
      5 C         142.0947  142.7668  168.0100 C.2     1  UNL1        0.1730
      6 C         141.5261  142.8086  166.6225 C.ar    1  UNL1        0.0342
      7 C         140.0984  143.2162  166.4090 C.ar    1  UNL1       -0.0002
      8 C         139.5298  143.2579  165.0216 C.ar    1  UNL1       -0.0082
      9 C         140.3889  142.8921  163.8477 C.ar    1  UNL1        0.0459
     10 C         141.8166  142.4845  164.0611 C.ar    1  UNL1       -0.0070
     11 C         142.3852  142.4428  165.4485 C.ar    1  UNL1       -0.0002
     12 C         142.4173  142.1806  162.7207 C.3     1  UNL1        0.0495
     13 C         141.3608  142.4004  161.6788 C.3     1  UNL1        0.1029
     14 N         140.1072  142.8401  162.3753 N.am    1  UNL1       -0.2589
     15 C         138.6748  143.2477  162.1460 C.2     1  UNL1        0.2297
     16 O         138.2473  143.2425  160.7082 O.2     1  UNL1       -0.2745
     17 C         137.7000  143.6386  163.2169 C.3     1  UNL1        0.0903
     18 C         138.1275  143.6437  164.6547 C.3     1  UNL1        0.0372
     19 C         140.8137  140.0375  170.3360 C.3     1  UNL1        0.0721
     20 N         140.8964  139.7516  168.8658 N.3     1  UNL1       -0.2727
     21 C         142.2148  139.3994  168.2432 C.3     1  UNL1        0.0725
     22 C         142.2974  139.1135  166.7730 C.3     1  UNL1        0.0234
     23 C         141.0617  139.1798  165.9254 C.3     1  UNL1        0.0464
     24 C         139.7432  139.5320  166.5480 C.3     1  UNL1        0.0234
     25 C         139.6606  139.8179  168.0182 C.3     1  UNL1        0.0725
     26 C         141.1442  138.8939  164.4552 C.ar    1  UNL1        0.1003
     27 N         142.3142  138.2865  163.7395 N.ar    1  UNL1       -0.0814
     28 O         141.9644  138.1824  162.2846 O.2     1  UNL1       -0.3536
     29 C         140.5783  138.7254  162.1011 C.ar    1  UNL1        0.1787
     30 C         139.7122  138.8764  160.8858 C.ar    1  UNL1        0.0698
     31 C         138.3392  139.4670  161.0119 C.ar    1  UNL1        0.1433
     32 F         137.4730  139.6179  159.7966 F       1  UNL1       -0.2041
     33 C         137.8323  139.9067  162.3535 C.ar    1  UNL1        0.0299
     34 C         138.6983  139.7558  163.5688 C.ar    1  UNL1        0.0067
     35 C         140.0714  139.1652  163.4426 C.ar    1  UNL1        0.0540
@<TRIPOS>BOND
     1     4     5    2
     2     5     3    1
     3     3     2    1
     4     2     1    1
     5     1    19    1
     6    19    20    1
     7    20    21    1
     8    21    22    1
     9    22    23    1
    10    23    26    1
    11    26    27   ar
    12    27    28   ar
    13    28    29   ar
    14    29    30   ar
    15    30    31   ar
    16    31    32    1
    17    31    33   ar
    18    33    34   ar
    19    34    35   ar
    20    23    24    1
    21    24    25    1
    22     5     6    1
    23     6     7   ar
    24     7     8   ar
    25     8     9   ar
    26     9    10   ar
    27    10    11   ar
    28    10    12    1
    29    12    13    1
    30    13    14    1
    31    14    15   am
    32    15    16    2
    33    15    17    1
    34    17    18    1
    35    25    20    1
    36    11     6   ar
    37    35    26   ar
    38    18     8    1
    39    35    29   ar
    40    14     9    1
@<TRIPOS>MOLECULE
*****
 35 40 0 0 0
SMALL
GASTEIGER

@<TRIPOS>ATOM
      1 C         143.3092  138.3769  166.0811 C.3     1  UNL1        0.0178
      2 C         142.9946  138.9479  167.4321 C.3     1  UNL1        0.0095
      3 C         142.4547  140.3424  167.5497 C.3     1  UNL1        0.0692
      4 O         139.9656  139.9572  168.1868 O.2     1  UNL1       -0.2913
      5 C         140.9972  140.6050  167.3115 C.2     1  UNL1        0.1730
      6 C         140.5713  141.5154  166.1979 C.ar    1  UNL1        0.0342
      7 C         141.4642  142.6404  165.7659 C.ar    1  UNL1       -0.0002
      8 C         141.0383  143.5507  164.6524 C.ar    1  UNL1       -0.0082
      9 C         139.7194  143.3359  163.9709 C.ar    1  UNL1        0.0459
     10 C         138.8264  142.2108  164.4030 C.ar    1  UNL1       -0.0070
     11 C         139.2523  141.3005  165.5165 C.ar    1  UNL1       -0.0002
     12 C         137.5924  142.2449  163.5509 C.3     1  UNL1        0.0495
     13 C         137.7228  143.3912  162.5922 C.3     1  UNL1        0.1029
     14 N         139.0373  144.0655  162.8518 N.am    1  UNL1       -0.2589
     15 C         139.9242  145.1996  162.4074 C.2     1  UNL1        0.2297
     16 O         139.3671  146.0241  161.2849 O.2     1  UNL1       -0.2745
     17 C         141.2640  145.5361  162.9918 C.3     1  UNL1        0.0903
     18 C         141.8211  144.7117  164.1143 C.3     1  UNL1        0.0372
     19 C         144.2738  139.0827  165.1747 C.3     1  UNL1        0.0721
     20 N         143.7617  139.9847  164.0911 N.3     1  UNL1       -0.2727
     21 C         144.6223  141.0990  163.5737 C.3     1  UNL1        0.0725
     22 C         144.1102  142.0009  162.4900 C.3     1  UNL1        0.0234
     23 C         142.7376  141.7886  161.9238 C.3     1  UNL1        0.0464
     24 C         141.8770  140.6743  162.4411 C.3     1  UNL1        0.0234
     25 C         142.3890  139.7723  163.5248 C.3     1  UNL1        0.0725
     26 C         142.2254  142.6905  160.8401 C.ar    1  UNL1        0.1003
     27 N         142.9212  143.9056  160.3023 N.ar    1  UNL1       -0.0814
     28 O         142.0534  144.5017  159.2338 O.2     1  UNL1       -0.3536
     29 C         140.8214  143.6550  159.1113 C.ar    1  UNL1        0.1787
     30 C         139.6164  143.7587  158.2240 C.ar    1  UNL1        0.0698
     31 C         138.5178  142.7429  158.3294 C.ar    1  UNL1        0.1433
     32 F         137.3127  142.8466  157.4421 F       1  UNL1       -0.2041
     33 C         138.6241  141.6235  159.3222 C.ar    1  UNL1        0.0299
     34 C         139.8290  141.5198  160.2095 C.ar    1  UNL1        0.0067
     35 C         140.9277  142.5356  160.1040 C.ar    1  UNL1        0.0540
@<TRIPOS>BOND
     1     4     5    2
     2     5     3    1
     3     3     2    1
     4     2     1    1
     5     1    19    1
     6    19    20    1
     7    20    21    1
     8    21    22    1
     9    22    23    1
    10    23    26    1
    11    26    27   ar
    12    27    28   ar
    13    28    29   ar
    14    29    30   ar
    15    30    31   ar
    16    31    32    1
    17    31    33   ar
    18    33    34   ar
    19    34    35   ar
    20    23    24    1
    21    24    25    1
    22     5     6    1
    23     6     7   ar
    24     7     8   ar
    25     8     9   ar
    26     9    10   ar
    27    10    11   ar
    28    10    12    1
    29    12    13    1
    30    13    14    1
    31    14    15   am
    32    15    16    2
    33    15    17    1
    34    17    18    1
    35    25    20    1
    36    11     6   ar
    37    35    26   ar
    38    18     8    1
    39    35    29   ar
    40    14     9    1
@<TRIPOS>MOLECULE
*****
 35 40 0 0 0
SMALL
GASTEIGER

@<TRIPOS>ATOM
      1 C         140.7136  142.3965  168.3125 C.3     1  UNL1        0.0178
      2 C         140.0500  141.1829  168.8929 C.3     1  UNL1        0.0095
      3 C         140.0582  139.8888  168.1344 C.3     1  UNL1        0.0692
      4 O         137.7111  138.7752  168.1678 O.2     1  UNL1       -0.2913
      5 C         138.8248  139.4359  167.4108 C.2     1  UNL1        0.1730
      6 C         138.7052  139.6436  165.9300 C.ar    1  UNL1        0.0342
      7 C         138.9947  138.5127  164.9882 C.ar    1  UNL1       -0.0002
      8 C         138.8751  138.7205  163.5074 C.ar    1  UNL1       -0.0082
      9 C         138.4660  140.0592  162.9686 C.ar    1  UNL1        0.0459
     10 C         138.1764  141.1902  163.9104 C.ar    1  UNL1       -0.0070
     11 C         138.2961  140.9825  165.3911 C.ar    1  UNL1       -0.0002
     12 C         137.7967  142.3889  163.0925 C.3     1  UNL1        0.0495
     13 C         137.8515  141.9987  161.6452 C.3     1  UNL1        0.1029
     14 N         138.2651  140.5589  161.5686 N.am    1  UNL1       -0.2589
     15 C         138.5528  139.4318  160.6108 C.2     1  UNL1        0.2297
     16 O         138.3917  139.7875  159.1625 O.2     1  UNL1       -0.2745
     17 C         138.9700  138.0447  161.0006 C.3     1  UNL1        0.0903
     18 C         139.1311  137.6890  162.4489 C.3     1  UNL1        0.0372
     19 C         141.9826  142.2533  167.5256 C.3     1  UNL1        0.0721
     20 N         141.9246  142.0200  166.0450 N.3     1  UNL1       -0.2727
     21 C         141.5187  143.1335  165.1256 C.3     1  UNL1        0.0725
     22 C         141.4607  142.9002  163.6450 C.3     1  UNL1        0.0234
     23 C         141.8086  141.5534  163.0838 C.3     1  UNL1        0.0464
     24 C         142.2146  140.4399  164.0032 C.3     1  UNL1        0.0234
     25 C         142.2726  140.6732  165.4838 C.3     1  UNL1        0.0725
     26 C         141.7506  141.3200  161.6031 C.ar    1  UNL1        0.1003
     27 N         141.3139  142.3160  160.5701 N.ar    1  UNL1       -0.0814
     28 O         141.4126  141.6612  159.2242 O.2     1  UNL1       -0.3536
     29 C         141.9101  140.2607  159.4254 C.ar    1  UNL1        0.1787
     30 C         142.2000  139.1500  158.4597 C.ar    1  UNL1        0.0698
     31 C         142.6988  137.8285  158.9644 C.ar    1  UNL1        0.1433
     32 F         142.9887  136.7178  157.9988 F       1  UNL1       -0.2041
     33 C         142.9078  137.6175  160.4347 C.ar    1  UNL1        0.0299
     34 C         142.6179  138.7281  161.4004 C.ar    1  UNL1        0.0067
     35 C         142.1191  140.0497  160.8957 C.ar    1  UNL1        0.0540
@<TRIPOS>BOND
     1     4     5    2
     2     5     3    1
     3     3     2    1
     4     2     1    1
     5     1    19    1
     6    19    20    1
     7    20    21    1
     8    21    22    1
     9    22    23    1
    10    23    26    1
    11    26    27   ar
    12    27    28   ar
    13    28    29   ar
    14    29    30   ar
    15    30    31   ar
    16    31    32    1
    17    31    33   ar
    18    33    34   ar
    19    34    35   ar
    20    23    24    1
    21    24    25    1
    22     5     6    1
    23     6     7   ar
    24     7     8   ar
    25     8     9   ar
    26     9    10   ar
    27    10    11   ar
    28    10    12    1
    29    12    13    1
    30    13    14    1
    31    14    15   am
    32    15    16    2
    33    15    17    1
    34    17    18    1
    35    25    20    1
    36    11     6   ar
    37    35    26   ar
    38    18     8    1
    39    35    29   ar
    40    14     9    1
@<TRIPOS>MOLECULE
*****
 35 40 0 0 0
SMALL
GASTEIGER

@<TRIPOS>ATOM
      1 C         139.1692  137.9965  160.7597 C.3     1  UNL1        0.0178
      2 C         140.4947  138.6028  160.4052 C.3     1  UNL1        0.0095
      3 C         141.7234  138.2238  161.1775 C.3     1  UNL1        0.0692
      4 O         143.8710  138.9442  162.4499 O.2     1  UNL1       -0.2913
      5 C         142.5284  139.2817  161.8725 C.2     1  UNL1        0.1730
      6 C         141.9907  140.6771  161.9901 C.ar    1  UNL1        0.0342
      7 C         141.8499  141.5322  160.7659 C.ar    1  UNL1       -0.0002
      8 C         141.3122  142.9276  160.8834 C.ar    1  UNL1       -0.0082
      9 C         140.9153  143.4678  162.2253 C.ar    1  UNL1        0.0459
     10 C         141.0561  142.6127  163.4496 C.ar    1  UNL1       -0.0070
     11 C         141.5937  141.2173  163.3321 C.ar    1  UNL1       -0.0002
     12 C         140.5864  143.4112  164.6293 C.3     1  UNL1        0.0495
     13 C         140.1553  144.7599  164.1341 C.3     1  UNL1        0.1029
     14 N         140.3586  144.7949  162.6483 N.am    1  UNL1       -0.2589
     15 C         140.2118  145.6651  161.4270 C.2     1  UNL1        0.2297
     16 O         139.6616  147.0338  161.6988 O.2     1  UNL1       -0.2745
     17 C         140.5657  145.2636  160.0257 C.3     1  UNL1        0.0903
     18 C         141.1159  143.8949  159.7539 C.3     1  UNL1        0.0372
     19 C         138.1983  138.7609  161.6101 C.3     1  UNL1        0.0721
     20 N         138.5207  139.0427  163.0477 N.3     1  UNL1       -0.2727
     21 C         138.0380  140.3091  163.6903 C.3     1  UNL1        0.0725
     22 C         138.3603  140.5909  165.1279 C.3     1  UNL1        0.0234
     23 C         139.1655  139.6062  165.9229 C.3     1  UNL1        0.0464
     24 C         139.6483  138.3397  165.2803 C.3     1  UNL1        0.0234
     25 C         139.3259  138.0580  163.8427 C.3     1  UNL1        0.0725
     26 C         139.4879  139.8879  167.3605 C.ar    1  UNL1        0.1003
     27 N         138.6738  139.4625  168.5464 N.ar    1  UNL1       -0.0814
     28 O         139.3638  139.9561  169.7834 O.2     1  UNL1       -0.3536
     29 C         140.6042  140.6865  169.3621 C.ar    1  UNL1        0.1787
     30 C         141.6740  141.3846  170.1486 C.ar    1  UNL1        0.0698
     31 C         142.8203  142.0405  169.4376 C.ar    1  UNL1        0.1433
     32 F         143.8900  142.7386  170.2241 F       1  UNL1       -0.2041
     33 C         142.8971  141.9984  167.9402 C.ar    1  UNL1        0.0299
     34 C         141.8274  141.3003  167.1537 C.ar    1  UNL1        0.0067
     35 C         140.6810  140.6444  167.8647 C.ar    1  UNL1        0.0540
@<TRIPOS>BOND
     1     4     5    2
     2     5     3    1
     3     3     2    1
     4     2     1    1
     5     1    19    1
     6    19    20    1
     7    20    21    1
     8    21    22    1
     9    22    23    1
    10    23    26    1
    11    26    27   ar
    12    27    28   ar
    13    28    29   ar
    14    29    30   ar
    15    30    31   ar
    16    31    32    1
    17    31    33   ar
    18    33    34   ar
    19    34    35   ar
    20    23    24    1
    21    24    25    1
    22     5     6    1
    23     6     7   ar
    24     7     8   ar
    25     8     9   ar
    26     9    10   ar
    27    10    11   ar
    28    10    12    1
    29    12    13    1
    30    13    14    1
    31    14    15   am
    32    15    16    2
    33    15    17    1
    34    17    18    1
    35    25    20    1
    36    11     6   ar
    37    35    26   ar
    38    18     8    1
    39    35    29   ar
    40    14     9    1
@<TRIPOS>MOLECULE
*****
 35 40 0 0 0
SMALL
GASTEIGER

@<TRIPOS>ATOM
      1 C         143.7870  141.5613  160.8903 C.3     1  UNL1        0.0178
      2 C         143.2502  142.8896  160.4459 C.3     1  UNL1        0.0095
      3 C         142.4166  143.7130  161.3825 C.3     1  UNL1        0.0692
      4 O         139.9758  144.4499  160.8832 O.2     1  UNL1       -0.2913
      5 C         140.9399  143.4698  161.4831 C.2     1  UNL1        0.1730
      6 C         140.4272  142.2465  162.1838 C.ar    1  UNL1        0.0342
      7 C         140.1469  142.2879  163.6567 C.ar    1  UNL1       -0.0002
      8 C         139.6343  141.0647  164.3573 C.ar    1  UNL1       -0.0082
      9 C         139.4020  139.8000  163.5849 C.ar    1  UNL1        0.0459
     10 C         139.6824  139.7585  162.1119 C.ar    1  UNL1       -0.0070
     11 C         140.1950  140.9817  161.4113 C.ar    1  UNL1       -0.0002
     12 C         139.3600  138.3796  161.6173 C.3     1  UNL1        0.0495
     13 C         138.8805  137.5688  162.7847 C.3     1  UNL1        0.1029
     14 N         138.9064  138.4466  164.0007 N.am    1  UNL1       -0.2589
     15 C         138.6205  138.4739  165.4798 C.2     1  UNL1        0.2297
     16 O         138.1136  137.1784  166.0411 O.2     1  UNL1       -0.2745
     17 C         138.8036  139.6603  166.3791 C.3     1  UNL1        0.0903
     18 C         139.3105  140.9557  165.8179 C.3     1  UNL1        0.0372
     19 C         144.7169  141.4831  162.0647 C.3     1  UNL1        0.0721
     20 N         144.1720  141.2140  163.4361 N.3     1  UNL1       -0.2727
     21 C         144.1822  142.2976  164.4732 C.3     1  UNL1        0.0725
     22 C         143.6372  142.0284  165.8445 C.3     1  UNL1        0.0234
     23 C         143.0821  140.6756  166.1788 C.3     1  UNL1        0.0464
     24 C         143.0720  139.5920  165.1417 C.3     1  UNL1        0.0234
     25 C         143.6169  139.8612  163.7703 C.3     1  UNL1        0.0725
     26 C         142.5372  140.4064  167.5502 C.ar    1  UNL1        0.1003
     27 N         142.7572  139.1614  168.3574 N.ar    1  UNL1       -0.0814
     28 O         142.0326  139.3204  169.6612 O.2     1  UNL1       -0.3536
     29 C         141.3648  140.6634  169.6596 C.ar    1  UNL1        0.1787
     30 C         140.5130  141.3621  170.6776 C.ar    1  UNL1        0.0698
     31 C         139.9731  142.7319  170.3910 C.ar    1  UNL1        0.1433
     32 F         139.1213  143.4305  171.4091 F       1  UNL1       -0.2041
     33 C         140.2850  143.4031  169.0863 C.ar    1  UNL1        0.0299
     34 C         141.1368  142.7045  168.0683 C.ar    1  UNL1        0.0067
     35 C         141.6767  141.3346  168.3549 C.ar    1  UNL1        0.0540
@<TRIPOS>BOND
     1     4     5    2
     2     5     3    1
     3     3     2    1
     4     2     1    1
     5     1    19    1
     6    19    20    1
     7    20    21    1
     8    21    22    1
     9    22    23    1
    10    23    26    1
    11    26    27   ar
    12    27    28   ar
    13    28    29   ar
    14    29    30   ar
    15    30    31   ar
    16    31    32    1
    17    31    33   ar
    18    33    34   ar
    19    34    35   ar
    20    23    24    1
    21    24    25    1
    22     5     6    1
    23     6     7   ar
    24     7     8   ar
    25     8     9   ar
    26     9    10   ar
    27    10    11   ar
    28    10    12    1
    29    12    13    1
    30    13    14    1
    31    14    15   am
    32    15    16    2
    33    15    17    1
    34    17    18    1
    35    25    20    1
    36    11     6   ar
    37    35    26   ar
    38    18     8    1
    39    35    29   ar
    40    14     9    1
@<TRIPOS>MOLECULE
*****
 35 40 0 0 0
SMALL
GASTEIGER

@<TRIPOS>ATOM
      1 C         140.3540  144.2727  157.4628 C.3     1  UNL1        0.0178
      2 C         140.3102  145.4723  158.3623 C.3     1  UNL1        0.0095
      3 C         141.0428  145.4555  159.6711 C.3     1  UNL1        0.0692
      4 O         139.1411  146.6506  160.9770 O.2     1  UNL1       -0.2913
      5 C         140.2980  145.6962  160.9507 C.2     1  UNL1        0.1730
      6 C         140.7102  144.9825  162.2041 C.ar    1  UNL1        0.0342
      7 C         142.1354  144.5528  162.3884 C.ar    1  UNL1       -0.0002
      8 C         142.5476  143.8392  163.6416 C.ar    1  UNL1       -0.0082
      9 C         141.5344  143.5551  164.7107 C.ar    1  UNL1        0.0459
     10 C         140.1091  143.9847  164.5264 C.ar    1  UNL1       -0.0070
     11 C         139.6970  144.6984  163.2731 C.ar    1  UNL1       -0.0002
     12 C         139.3386  143.5697  165.7446 C.3     1  UNL1        0.0495
     13 C         140.2878  142.8835  166.6818 C.3     1  UNL1        0.1029
     14 N         141.6448  142.8745  166.0428 N.am    1  UNL1       -0.2589
     15 C         143.0730  142.4371  166.2414 C.2     1  UNL1        0.2297
     16 O         143.3357  141.7361  167.5412 O.2     1  UNL1       -0.2745
     17 C         144.1915  142.6507  165.2649 C.3     1  UNL1        0.0903
     18 C         143.9288  143.3517  163.9651 C.3     1  UNL1        0.0372
     19 C         139.5538  143.0504  157.8032 C.3     1  UNL1        0.0721
     20 N         139.6891  142.4185  159.1569 N.3     1  UNL1       -0.2727
     21 C         138.5206  142.4023  160.0973 C.3     1  UNL1        0.0725
     22 C         138.6559  141.7704  161.4509 C.3     1  UNL1        0.0234
     23 C         139.9598  141.1546  161.8642 C.3     1  UNL1        0.0464
     24 C         141.1283  141.1708  160.9238 C.3     1  UNL1        0.0234
     25 C         140.9930  141.8028  159.5702 C.3     1  UNL1        0.0725
     26 C         140.0952  140.5227  163.2179 C.ar    1  UNL1        0.1003
     27 N         138.9952  140.3457  164.2222 N.ar    1  UNL1       -0.0814
     28 O         139.5745  139.6704  165.4299 O.2     1  UNL1       -0.3536
     29 C         141.0324  139.4301  165.1719 C.ar    1  UNL1        0.1787
     30 C         142.1086  138.7996  166.0052 C.ar    1  UNL1        0.0698
     31 C         143.5065  138.6958  165.4714 C.ar    1  UNL1        0.1433
     32 F         144.5827  138.0653  166.3047 F       1  UNL1       -0.2041
     33 C         143.8283  139.2226  164.1043 C.ar    1  UNL1        0.0299
     34 C         142.7522  139.8530  163.2710 C.ar    1  UNL1        0.0067
     35 C         141.3542  139.9568  163.8047 C.ar    1  UNL1        0.0540
@<TRIPOS>BOND
     1     4     5    2
     2     5     3    1
     3     3     2    1
     4     2     1    1
     5     1    19    1
     6    19    20    1
     7    20    21    1
     8    21    22    1
     9    22    23    1
    10    23    26    1
    11    26    27   ar
    12    27    28   ar
    13    28    29   ar
    14    29    30   ar
    15    30    31   ar
    16    31    32    1
    17    31    33   ar
    18    33    34   ar
    19    34    35   ar
    20    23    24    1
    21    24    25    1
    22     5     6    1
    23     6     7   ar
    24     7     8   ar
    25     8     9   ar
    26     9    10   ar
    27    10    11   ar
    28    10    12    1
    29    12    13    1
    30    13    14    1
    31    14    15   am
    32    15    16    2
    33    15    17    1
    34    17    18    1
    35    25    20    1
    36    11     6   ar
    37    35    26   ar
    38    18     8    1
    39    35    29   ar
    40    14     9    1
