@<TRIPOS>MOLECULE
*****
 26 29 0 0 0
SMALL
GASTEIGER

@<TRIPOS>ATOM
      1 N         139.5386  138.6617  164.4007 N.3     1  UNL1       -0.2683
      2 C         140.9637  139.0716  164.1739 C.3     1  UNL1        0.0771
      3 C         141.8563  139.8838  165.0649 C.3     1  UNL1        0.0434
      4 C         141.5443  140.4866  166.4024 C.ar    1  UNL1       -0.0232
      5 C         142.7247  141.2264  166.9589 C.ar    1  UNL1        0.0151
      6 C         142.6235  141.9057  168.2924 C.ar    1  UNL1        0.0889
      7 N         143.6120  142.7035  169.0900 N.ar    1  UNL1       -0.2245
      8 C         142.9413  143.1362  170.3601 C.ar    1  UNL1        0.1567
      9 N         143.5644  143.9555  171.4512 N.pl3   1  UNL1       -0.3375
     10 S         141.5384  142.6058  170.3474 S.2     1  UNL1       -0.0520
     11 C         141.3419  141.8453  169.0695 C.ar    1  UNL1        0.0494
     12 C         140.1615  141.1056  168.5131 C.ar    1  UNL1        0.0035
     13 C         140.2627  140.4263  167.1796 C.ar    1  UNL1       -0.0241
     14 C         138.9766  139.7481  166.8110 C.3     1  UNL1        0.0434
     15 C         138.6544  138.9628  165.5742 C.3     1  UNL1        0.0771
     16 H         144.4973  144.2586  171.3676 H       1  UNL1        0.1442
     17 H         143.0405  144.1900  172.2510 H       1  UNL1        0.1442
     18 C         138.9157  137.8425  163.3095 C.3     1  UNL1        0.0993
     19 C         139.6740  138.6118  159.4907 C.ar    1  UNL1        0.1385
     20 C         138.5415  139.5372  159.1577 C.ar    1  UNL1        0.0369
     21 C         137.5337  139.8977  160.2085 C.ar    1  UNL1        0.0028
     22 C         137.6584  139.3328  161.5925 C.ar    1  UNL1       -0.0027
     23 C         138.7909  138.4074  161.9256 C.ar    1  UNL1       -0.0031
     24 C         139.7988  138.0468  160.8746 C.ar    1  UNL1        0.0340
     25 C         140.2292  137.9221  157.0481 C.3     1  UNL1        0.2525
     26 O         140.6819  138.2512  158.4399 O.3     1  UNL1       -0.4714
@<TRIPOS>BOND
     1    25    26    1
     2    26    19    1
     3    19    20   ar
     4    20    21   ar
     5    21    22   ar
     6    22    23   ar
     7    23    18    1
     8    18     1    1
     9     1     2    1
    10     2     3    1
    11     3     4    1
    12     4     5   ar
    13     5     6   ar
    14     6     7   ar
    15     7     8   ar
    16     8     9    1
    17     8    10   ar
    18    10    11   ar
    19    11    12   ar
    20    12    13   ar
    21    13    14    1
    22    14    15    1
    23    23    24   ar
    24    24    19   ar
    25    15     1    1
    26    13     4   ar
    27    11     6   ar
    28     9    16    1
    29     9    17    1
@<TRIPOS>MOLECULE
*****
 26 29 0 0 0
SMALL
GASTEIGER

@<TRIPOS>ATOM
      1 N         142.1946  142.1996  165.5693 N.3     1  UNL1       -0.2683
      2 C         141.0302  143.1453  165.5613 C.3     1  UNL1        0.0771
      3 C         140.4858  143.9487  164.4174 C.3     1  UNL1        0.0434
      4 C         140.9713  144.0047  162.9993 C.ar    1  UNL1       -0.0232
      5 C         140.1401  144.9401  162.1721 C.ar    1  UNL1        0.0151
      6 C         140.4586  145.1420  160.7203 C.ar    1  UNL1        0.0889
      7 N         139.8219  145.9930  159.6619 N.ar    1  UNL1       -0.2245
      8 C         140.5781  145.7856  158.3832 C.ar    1  UNL1        0.1567
      9 N         140.2820  146.4423  157.0674 N.pl3   1  UNL1       -0.3375
     10 S         141.6822  144.8064  158.6513 S.2     1  UNL1       -0.0520
     11 C         141.6084  144.4086  160.0956 C.ar    1  UNL1        0.0494
     12 C         142.4396  143.4732  160.9228 C.ar    1  UNL1        0.0035
     13 C         142.1210  143.2713  162.3746 C.ar    1  UNL1       -0.0241
     14 C         143.0693  142.3006  163.0139 C.3     1  UNL1        0.0434
     15 C         143.1020  141.8237  164.4357 C.3     1  UNL1        0.0771
     16 H         139.5314  147.0746  156.9907 H       1  UNL1        0.1442
     17 H         140.8384  146.2409  156.2806 H       1  UNL1        0.1442
     18 C         142.4905  141.5430  166.8851 C.3     1  UNL1        0.0993
     19 C         139.2253  139.9942  168.5250 C.ar    1  UNL1        0.1385
     20 C         139.1610  140.7645  169.8105 C.ar    1  UNL1        0.0369
     21 C         140.2065  141.7943  170.1208 C.ar    1  UNL1        0.0028
     22 C         141.3164  142.0539  169.1457 C.ar    1  UNL1       -0.0027
     23 C         141.3807  141.2836  167.8603 C.ar    1  UNL1       -0.0031
     24 C         140.3351  140.2537  167.5499 C.ar    1  UNL1        0.0340
     25 C         137.8294  138.6576  166.7887 C.3     1  UNL1        0.2525
     26 O         138.1798  138.9643  168.2146 O.3     1  UNL1       -0.4714
@<TRIPOS>BOND
     1    25    26    1
     2    26    19    1
     3    19    20   ar
     4    20    21   ar
     5    21    22   ar
     6    22    23   ar
     7    23    18    1
     8    18     1    1
     9     1     2    1
    10     2     3    1
    11     3     4    1
    12     4     5   ar
    13     5     6   ar
    14     6     7   ar
    15     7     8   ar
    16     8     9    1
    17     8    10   ar
    18    10    11   ar
    19    11    12   ar
    20    12    13   ar
    21    13    14    1
    22    14    15    1
    23    23    24   ar
    24    24    19   ar
    25    15     1    1
    26    13     4   ar
    27    11     6   ar
    28     9    16    1
    29     9    17    1
@<TRIPOS>MOLECULE
*****
 26 29 0 0 0
SMALL
GASTEIGER

@<TRIPOS>ATOM
      1 N         139.5709  139.1293  162.7014 N.3     1  UNL1       -0.2683
      2 C         141.0560  139.0930  162.9101 C.3     1  UNL1        0.0771
      3 C         141.8252  139.2591  164.1872 C.3     1  UNL1        0.0434
      4 C         141.2995  139.5024  165.5707 C.ar    1  UNL1       -0.0232
      5 C         142.4136  139.6084  166.5695 C.ar    1  UNL1        0.0151
      6 C         142.1029  139.8517  168.0166 C.ar    1  UNL1        0.0889
      7 N         142.9842  140.0011  169.2211 N.ar    1  UNL1       -0.2245
      8 C         142.1041  140.2308  170.4139 C.ar    1  UNL1        0.1567
      9 N         142.5680  140.4325  171.8261 N.pl3   1  UNL1       -0.3375
     10 S         140.6789  140.2234  169.9466 S.2     1  UNL1       -0.0520
     11 C         140.6781  139.9891  168.4651 C.ar    1  UNL1        0.0494
     12 C         139.5639  139.8831  167.4662 C.ar    1  UNL1        0.0035
     13 C         139.8747  139.6398  166.0191 C.ar    1  UNL1       -0.0241
     14 C         138.6237  139.5678  165.1946 C.3     1  UNL1        0.0434
     15 C         138.4886  139.3405  163.7180 C.3     1  UNL1        0.0771
     16 H         143.5301  140.4205  172.0346 H       1  UNL1        0.1442
     17 H         141.9104  140.5767  172.5444 H       1  UNL1        0.1442
     18 C         139.1072  138.9276  161.2892 C.3     1  UNL1        0.0993
     19 C         138.8826  142.6843  160.0297 C.ar    1  UNL1        0.1385
     20 C         138.4123  142.4829  158.6197 C.ar    1  UNL1        0.0369
     21 C         138.1736  141.0965  158.0995 C.ar    1  UNL1        0.0028
     22 C         138.4052  139.9113  158.9893 C.ar    1  UNL1       -0.0027
     23 C         138.8756  140.1127  160.3994 C.ar    1  UNL1       -0.0031
     24 C         139.1143  141.4992  160.9196 C.ar    1  UNL1        0.0340
     25 C         140.5072  144.6450  160.5461 C.3     1  UNL1        0.2525
     26 O         139.1214  144.0708  160.5500 O.3     1  UNL1       -0.4714
@<TRIPOS>BOND
     1    25    26    1
     2    26    19    1
     3    19    20   ar
     4    20    21   ar
     5    21    22   ar
     6    22    23   ar
     7    23    18    1
     8    18     1    1
     9     1     2    1
    10     2     3    1
    11     3     4    1
    12     4     5   ar
    13     5     6   ar
    14     6     7   ar
    15     7     8   ar
    16     8     9    1
    17     8    10   ar
    18    10    11   ar
    19    11    12   ar
    20    12    13   ar
    21    13    14    1
    22    14    15    1
    23    23    24   ar
    24    24    19   ar
    25    15     1    1
    26    13     4   ar
    27    11     6   ar
    28     9    16    1
    29     9    17    1
@<TRIPOS>MOLECULE
*****
 26 29 0 0 0
SMALL
GASTEIGER

@<TRIPOS>ATOM
      1 N         138.4820  139.1548  165.5719 N.3     1  UNL1       -0.2683
      2 C         139.0252  137.9652  164.8370 C.3     1  UNL1        0.0771
      3 C         139.2243  137.7887  163.3608 C.3     1  UNL1        0.0434
      4 C         138.9293  138.7580  162.2549 C.ar    1  UNL1       -0.0232
      5 C         139.2775  138.1824  160.9141 C.ar    1  UNL1        0.0151
      6 C         139.0589  138.9921  159.6706 C.ar    1  UNL1        0.0889
      7 N         139.3051  138.6926  158.2216 N.ar    1  UNL1       -0.2245
      8 C         138.8905  139.8928  157.4231 C.ar    1  UNL1        0.1567
      9 N         138.9653  140.0279  155.9311 N.pl3   1  UNL1       -0.3375
     10 S         138.3879  140.9341  158.3786 S.2     1  UNL1       -0.0520
     11 C         138.4919  140.3775  159.7675 C.ar    1  UNL1        0.0494
     12 C         138.1437  140.9531  161.1083 C.ar    1  UNL1        0.0035
     13 C         138.3624  140.1434  162.3519 C.ar    1  UNL1       -0.0241
     14 C         137.9505  140.9015  163.5789 C.3     1  UNL1        0.0434
     15 C         138.0037  140.4614  165.0119 C.3     1  UNL1        0.0771
     16 H         139.3121  139.2848  155.3863 H       1  UNL1        0.1442
     17 H         138.6676  140.8596  155.4966 H       1  UNL1        0.1442
     18 C         138.4072  139.0196  167.0639 C.3     1  UNL1        0.0993
     19 C         141.5902  141.0444  168.2962 C.ar    1  UNL1        0.1385
     20 C         141.1633  141.4275  169.6822 C.ar    1  UNL1        0.0369
     21 C         139.8177  141.0080  170.1954 C.ar    1  UNL1        0.0028
     22 C         138.8990  140.2053  169.3227 C.ar    1  UNL1       -0.0027
     23 C         139.3259  139.8222  167.9367 C.ar    1  UNL1       -0.0031
     24 C         140.6715  140.2417  167.4234 C.ar    1  UNL1        0.0340
     25 C         143.0445  142.2101  166.4862 C.3     1  UNL1        0.2525
     26 O         142.9358  141.4639  167.7830 O.3     1  UNL1       -0.4714
@<TRIPOS>BOND
     1    25    26    1
     2    26    19    1
     3    19    20   ar
     4    20    21   ar
     5    21    22   ar
     6    22    23   ar
     7    23    18    1
     8    18     1    1
     9     1     2    1
    10     2     3    1
    11     3     4    1
    12     4     5   ar
    13     5     6   ar
    14     6     7   ar
    15     7     8   ar
    16     8     9    1
    17     8    10   ar
    18    10    11   ar
    19    11    12   ar
    20    12    13   ar
    21    13    14    1
    22    14    15    1
    23    23    24   ar
    24    24    19   ar
    25    15     1    1
    26    13     4   ar
    27    11     6   ar
    28     9    16    1
    29     9    17    1
@<TRIPOS>MOLECULE
*****
 26 29 0 0 0
SMALL
GASTEIGER

@<TRIPOS>ATOM
      1 N         143.1682  142.0713  162.4442 N.3     1  UNL1       -0.2683
      2 C         142.0419  141.0840  162.5269 C.3     1  UNL1        0.0771
      3 C         141.3464  140.5587  163.7478 C.3     1  UNL1        0.0434
      4 C         141.6053  140.8910  165.1873 C.ar    1  UNL1       -0.0232
      5 C         140.6796  140.1403  166.0981 C.ar    1  UNL1        0.0151
      6 C         140.7723  140.3293  167.5832 C.ar    1  UNL1        0.0889
      7 N         140.0002  139.7305  168.7214 N.ar    1  UNL1       -0.2245
      8 C         140.5415  140.3001  169.9991 C.ar    1  UNL1        0.1567
      9 N         140.0605  139.9757  171.3824 N.pl3   1  UNL1       -0.3375
     10 S         141.6480  141.2508  169.6507 S.2     1  UNL1       -0.0520
     11 C         141.7907  141.2689  168.1577 C.ar    1  UNL1        0.0494
     12 C         142.7164  142.0196  167.2469 C.ar    1  UNL1        0.0035
     13 C         142.6237  141.8307  165.7617 C.ar    1  UNL1       -0.0241
     14 C         143.6347  142.6701  165.0383 C.3     1  UNL1        0.0434
     15 C         143.8770  142.7771  163.5619 C.3     1  UNL1        0.0771
     16 H         139.3238  139.3352  171.5099 H       1  UNL1        0.1442
     17 H         140.4815  140.4033  172.1629 H       1  UNL1        0.1442
     18 C         143.6490  142.3956  161.0609 C.3     1  UNL1        0.0993
     19 C         140.9457  145.0621  159.9069 C.ar    1  UNL1        0.1385
     20 C         141.2707  145.1819  158.4475 C.ar    1  UNL1        0.0369
     21 C         142.3885  144.3730  157.8592 C.ar    1  UNL1        0.0028
     22 C         143.1813  143.4441  158.7303 C.ar    1  UNL1       -0.0027
     23 C         142.8563  143.3243  160.1897 C.ar    1  UNL1       -0.0031
     24 C         141.7385  144.1334  160.7781 C.ar    1  UNL1        0.0340
     25 C         139.7511  146.0762  161.9793 C.3     1  UNL1        0.2525
     26 O         139.8279  145.8711  160.4953 O.3     1  UNL1       -0.4714
@<TRIPOS>BOND
     1    25    26    1
     2    26    19    1
     3    19    20   ar
     4    20    21   ar
     5    21    22   ar
     6    22    23   ar
     7    23    18    1
     8    18     1    1
     9     1     2    1
    10     2     3    1
    11     3     4    1
    12     4     5   ar
    13     5     6   ar
    14     6     7   ar
    15     7     8   ar
    16     8     9    1
    17     8    10   ar
    18    10    11   ar
    19    11    12   ar
    20    12    13   ar
    21    13    14    1
    22    14    15    1
    23    23    24   ar
    24    24    19   ar
    25    15     1    1
    26    13     4   ar
    27    11     6   ar
    28     9    16    1
    29     9    17    1
@<TRIPOS>MOLECULE
*****
 26 29 0 0 0
SMALL
GASTEIGER

@<TRIPOS>ATOM
      1 N         143.4066  139.4818  162.5451 N.3     1  UNL1       -0.2683
      2 C         143.6105  140.9484  162.7851 C.3     1  UNL1        0.0771
      3 C         143.5214  141.7060  164.0767 C.3     1  UNL1        0.0434
      4 C         143.2064  141.1841  165.4472 C.ar    1  UNL1       -0.0232
      5 C         143.2191  142.2829  166.4683 C.ar    1  UNL1        0.0151
      6 C         142.9281  141.9734  167.9068 C.ar    1  UNL1        0.0889
      7 N         142.8691  142.8418  169.1284 N.ar    1  UNL1       -0.2245
      8 C         142.5290  141.9703  170.3008 C.ar    1  UNL1        0.1567
      9 N         142.3683  142.4260  171.7209 N.pl3   1  UNL1       -0.3375
     10 S         142.3777  140.5631  169.8039 S.2     1  UNL1       -0.0520
     11 C         142.6244  140.5650  168.3244 C.ar    1  UNL1        0.0494
     12 C         142.6117  139.4662  167.3033 C.ar    1  UNL1        0.0035
     13 C         142.9027  139.7758  165.8647 C.ar    1  UNL1       -0.0241
     14 C         142.8390  138.5415  165.0148 C.3     1  UNL1        0.0434
     15 C         143.0633  138.4107  163.5374 C.3     1  UNL1        0.0771
     16 H         142.4882  143.3760  171.9496 H       1  UNL1        0.1442
     17 H         142.1429  141.7750  172.4243 H       1  UNL1        0.1442
     18 C         143.5673  139.0262  161.1251 C.3     1  UNL1        0.0993
     19 C         139.7792  138.8788  159.9510 C.ar    1  UNL1        0.1385
     20 C         139.9418  138.4562  158.5210 C.ar    1  UNL1        0.0369
     21 C         141.3129  138.2237  157.9590 C.ar    1  UNL1        0.0028
     22 C         142.5215  138.4137  158.8270 C.ar    1  UNL1       -0.0027
     23 C         142.3588  138.8362  160.2570 C.ar    1  UNL1       -0.0031
     24 C         140.9876  139.0688  160.8191 C.ar    1  UNL1        0.0340
     25 C         137.9411  138.3238  161.7014 C.3     1  UNL1        0.2525
     26 O         138.4080  139.1113  160.5131 O.3     1  UNL1       -0.4714
@<TRIPOS>BOND
     1    25    26    1
     2    26    19    1
     3    19    20   ar
     4    20    21   ar
     5    21    22   ar
     6    22    23   ar
     7    23    18    1
     8    18     1    1
     9     1     2    1
    10     2     3    1
    11     3     4    1
    12     4     5   ar
    13     5     6   ar
    14     6     7   ar
    15     7     8   ar
    16     8     9    1
    17     8    10   ar
    18    10    11   ar
    19    11    12   ar
    20    12    13   ar
    21    13    14    1
    22    14    15    1
    23    23    24   ar
    24    24    19   ar
    25    15     1    1
    26    13     4   ar
    27    11     6   ar
    28     9    16    1
    29     9    17    1
@<TRIPOS>MOLECULE
*****
 26 29 0 0 0
SMALL
GASTEIGER

@<TRIPOS>ATOM
      1 N         139.6019  138.3752  162.6501 N.3     1  UNL1       -0.2683
      2 C         141.0597  138.1602  162.9308 C.3     1  UNL1        0.0771
      3 C         141.8140  138.4110  164.2030 C.3     1  UNL1        0.0434
      4 C         141.2969  138.9387  165.5083 C.ar    1  UNL1       -0.0232
      5 C         142.3900  139.0383  166.5307 C.ar    1  UNL1        0.0151
      6 C         142.0840  139.5451  167.9089 C.ar    1  UNL1        0.0889
      7 N         142.9484  139.7523  169.1171 N.ar    1  UNL1       -0.2245
      8 C         142.0836  140.2876  170.2196 C.ar    1  UNL1        0.1567
      9 N         142.5381  140.6377  171.6056 N.pl3   1  UNL1       -0.3375
     10 S         140.6847  140.4112  169.6928 S.2     1  UNL1       -0.0520
     11 C         140.6849  139.9524  168.2648 C.ar    1  UNL1        0.0494
     12 C         139.5918  139.8527  167.2424 C.ar    1  UNL1        0.0035
     13 C         139.8978  139.3459  165.8642 C.ar    1  UNL1       -0.0241
     14 C         138.6702  139.3260  165.0024 C.3     1  UNL1        0.0434
     15 C         138.5386  138.8940  163.5720 C.3     1  UNL1        0.0771
     16 H         143.4825  140.5212  171.8581 H       1  UNL1        0.1442
     17 H         141.8919  140.9841  172.2627 H       1  UNL1        0.1442
     18 C         139.1476  138.0251  161.2641 C.3     1  UNL1        0.0993
     19 C         140.6546  140.1643  158.2804 C.ar    1  UNL1        0.1385
     20 C         139.4908  141.0517  157.9518 C.ar    1  UNL1        0.0369
     21 C         138.2126  140.9302  158.7272 C.ar    1  UNL1        0.0028
     22 C         138.0981  139.9213  159.8314 C.ar    1  UNL1       -0.0027
     23 C         139.2619  139.0339  160.1600 C.ar    1  UNL1       -0.0031
     24 C         140.5402  139.1554  159.3845 C.ar    1  UNL1        0.0340
     25 C         143.0697  139.3468  157.7812 C.3     1  UNL1        0.2525
     26 O         141.9329  140.2858  157.5050 O.3     1  UNL1       -0.4714
@<TRIPOS>BOND
     1    25    26    1
     2    26    19    1
     3    19    20   ar
     4    20    21   ar
     5    21    22   ar
     6    22    23   ar
     7    23    18    1
     8    18     1    1
     9     1     2    1
    10     2     3    1
    11     3     4    1
    12     4     5   ar
    13     5     6   ar
    14     6     7   ar
    15     7     8   ar
    16     8     9    1
    17     8    10   ar
    18    10    11   ar
    19    11    12   ar
    20    12    13   ar
    21    13    14    1
    22    14    15    1
    23    23    24   ar
    24    24    19   ar
    25    15     1    1
    26    13     4   ar
    27    11     6   ar
    28     9    16    1
    29     9    17    1
@<TRIPOS>MOLECULE
*****
 26 29 0 0 0
SMALL
GASTEIGER

@<TRIPOS>ATOM
      1 N         140.1780  139.4048  162.1704 N.3     1  UNL1       -0.2683
      2 C         138.8513  139.3589  162.8689 C.3     1  UNL1        0.0771
      3 C         138.5640  139.4565  164.3379 C.3     1  UNL1        0.0434
      4 C         139.5322  139.6241  165.4711 C.ar    1  UNL1       -0.0232
      5 C         138.8250  139.6771  166.7929 C.ar    1  UNL1        0.0151
      6 C         139.6126  139.8415  168.0588 C.ar    1  UNL1        0.0889
      7 N         139.1949  139.9265  169.4970 N.ar    1  UNL1       -0.2245
      8 C         140.4315  140.0904  170.3300 C.ar    1  UNL1        0.1567
      9 N         140.4778  140.2159  171.8240 N.pl3   1  UNL1       -0.3375
     10 S         141.6135  140.1068  169.4067 S.2     1  UNL1       -0.0520
     11 C         141.1074  139.9529  168.0031 C.ar    1  UNL1        0.0494
     12 C         141.8147  139.8999  166.6813 C.ar    1  UNL1        0.0035
     13 C         141.0271  139.7355  165.4153 C.ar    1  UNL1       -0.0241
     14 C         141.9228  139.7068  164.2125 C.3     1  UNL1        0.0434
     15 C         141.5448  139.5596  162.7683 C.3     1  UNL1        0.0771
     16 H         139.6434  140.1938  172.3460 H       1  UNL1        0.1442
     17 H         141.3427  140.3205  172.2826 H       1  UNL1        0.1442
     18 C         140.1316  139.2792  160.6763 C.3     1  UNL1        0.0993
     19 C         139.2080  142.8921  159.3185 C.ar    1  UNL1        0.1385
     20 C         138.2701  142.5438  158.2009 C.ar    1  UNL1        0.0369
     21 C         137.9527  141.1073  157.9085 C.ar    1  UNL1        0.0028
     22 C         138.5732  140.0190  158.7336 C.ar    1  UNL1       -0.0027
     23 C         139.5111  140.3674  159.8512 C.ar    1  UNL1       -0.0031
     24 C         139.8285  141.8040  160.1436 C.ar    1  UNL1        0.0340
     25 C         140.1813  144.7030  160.9071 C.3     1  UNL1        0.2525
     26 O         139.5255  144.3287  159.6110 O.3     1  UNL1       -0.4714
@<TRIPOS>BOND
     1    25    26    1
     2    26    19    1
     3    19    20   ar
     4    20    21   ar
     5    21    22   ar
     6    22    23   ar
     7    23    18    1
     8    18     1    1
     9     1     2    1
    10     2     3    1
    11     3     4    1
    12     4     5   ar
    13     5     6   ar
    14     6     7   ar
    15     7     8   ar
    16     8     9    1
    17     8    10   ar
    18    10    11   ar
    19    11    12   ar
    20    12    13   ar
    21    13    14    1
    22    14    15    1
    23    23    24   ar
    24    24    19   ar
    25    15     1    1
    26    13     4   ar
    27    11     6   ar
    28     9    16    1
    29     9    17    1
@<TRIPOS>MOLECULE
*****
 26 29 0 0 0
SMALL
GASTEIGER

@<TRIPOS>ATOM
      1 N         140.2822  140.6474  164.9498 N.3     1  UNL1       -0.2683
      2 C         139.2659  141.7441  164.8296 C.3     1  UNL1        0.0771
      3 C         139.1333  142.7827  163.7553 C.3     1  UNL1        0.0434
      4 C         139.9842  142.9808  162.5361 C.ar    1  UNL1       -0.0232
      5 C         139.5055  144.1426  161.7167 C.ar    1  UNL1        0.0151
      6 C         140.2205  144.5130  160.4512 C.ar    1  UNL1        0.0889
      7 N         139.9814  145.5987  159.4443 N.ar    1  UNL1       -0.2245
      8 C         141.0273  145.4785  158.3758 C.ar    1  UNL1        0.1567
      9 N         141.1637  146.3631  157.1720 N.pl3   1  UNL1       -0.3375
     10 S         141.9127  144.3185  158.7223 S.2     1  UNL1       -0.0520
     11 C         141.4141  143.7217  160.0049 C.ar    1  UNL1        0.0494
     12 C         141.8928  142.5600  160.8243 C.ar    1  UNL1        0.0035
     13 C         141.1778  142.1896  162.0898 C.ar    1  UNL1       -0.0241
     14 C         141.8154  141.0046  162.7527 C.3     1  UNL1        0.0434
     15 C         141.4167  140.3183  164.0256 C.3     1  UNL1        0.0771
     16 H         140.5300  147.1032  157.0307 H       1  UNL1        0.1442
     17 H         141.8869  146.2037  156.5234 H       1  UNL1        0.1442
     18 C         140.1457  139.7628  166.1536 C.3     1  UNL1        0.0993
     19 C         141.3402  141.9116  169.2689 C.ar    1  UNL1        0.1385
     20 C         140.2983  141.5437  170.2833 C.ar    1  UNL1        0.0369
     21 C         139.2055  140.5822  169.9211 C.ar    1  UNL1        0.0028
     22 C         139.1546  139.9886  168.5445 C.ar    1  UNL1       -0.0027
     23 C         140.1965  140.3564  167.5301 C.ar    1  UNL1       -0.0031
     24 C         141.2894  141.3180  167.8924 C.ar    1  UNL1        0.0340
     25 C         143.8300  142.3726  169.8510 C.3     1  UNL1        0.2525
     26 O         142.4331  142.8732  169.6311 O.3     1  UNL1       -0.4714
@<TRIPOS>BOND
     1    25    26    1
     2    26    19    1
     3    19    20   ar
     4    20    21   ar
     5    21    22   ar
     6    22    23   ar
     7    23    18    1
     8    18     1    1
     9     1     2    1
    10     2     3    1
    11     3     4    1
    12     4     5   ar
    13     5     6   ar
    14     6     7   ar
    15     7     8   ar
    16     8     9    1
    17     8    10   ar
    18    10    11   ar
    19    11    12   ar
    20    12    13   ar
    21    13    14    1
    22    14    15    1
    23    23    24   ar
    24    24    19   ar
    25    15     1    1
    26    13     4   ar
    27    11     6   ar
    28     9    16    1
    29     9    17    1
