@<TRIPOS>MOLECULE
*****
 89 94 0 0 0
SMALL
GASTEIGER

@<TRIPOS>ATOM
      1 C         143.2073  139.1571  155.7805 C.3     1  UNL1        0.1286
      2 C         143.2463  140.2966  154.8058 C.3     1  UNL1        0.0574
      3 C         143.9318  139.6417  153.6434 C.3     1  UNL1        0.0051
      4 C         143.0334  141.6768  154.2582 C.3     1  UNL1        0.1444
      5 C         142.5973  143.1112  154.2117 C.3     1  UNL1        0.1134
      6 C         143.2612  142.6606  152.9443 C.3     1  UNL1        0.0318
      7 O         142.6787  144.1944  153.1773 O.3     1  UNL1       -0.3844
      8 C         141.9969  144.4063  154.6727 C.3     1  UNL1        0.0310
      9 C         141.3134  145.3869  155.5787 C.3     1  UNL1        0.0223
     10 C         141.2886  146.6027  154.7004 C.3     1  UNL1        0.0018
     11 C         140.6390  145.9209  156.8076 C.3     1  UNL1        0.0935
     12 N         140.0648  145.9359  158.1932 N.am    1  UNL1       -0.2777
     13 C         139.5810  147.3534  158.2758 C.3     1  UNL1        0.1148
     14 C         139.6683  145.4300  159.5485 C.2     1  UNL1        0.2274
     15 O         139.0389  146.6616  160.1291 O.2     1  UNL1       -0.2748
     16 C         139.5031  144.4715  160.6904 C.3     1  UNL1        0.1051
     17 C         139.5916  143.1899  161.4648 C.3     1  UNL1        0.0850
     18 N         139.9217  141.7583  161.7670 N.am    1  UNL1       -0.3038
     19 C         140.4489  140.3699  161.5561 C.2     1  UNL1        0.2403
     20 O         140.1063  139.7418  162.8745 O.2     1  UNL1       -0.2733
     21 C         141.1020  139.2123  160.8608 C.3     1  UNL1        0.1485
     22 N         141.7927  138.4419  159.7748 N.am    1  UNL1       -0.2983
     23 C         142.4279  138.1627  158.4450 C.2     1  UNL1        0.2247
     24 O         142.8126  136.7234  158.6200 O.2     1  UNL1       -0.2750
     25 C         142.9216  138.4123  157.0507 C.3     1  UNL1        0.1037
     26 C         143.2889  137.2541  157.0513 C.3     1  UNL1        0.0121
     27 H         143.1148  143.8501  152.3821 H       1  UNL1        0.2103
     28 H         139.5697  141.6809  162.6832 H       1  UNL1        0.1494
     29 H         141.8920  137.5646  160.2105 H       1  UNL1        0.1498
     30 C         140.9994  138.1588  161.9237 C.3     1  UNL1        0.0269
     31 C         139.6561  137.6226  162.3211 C.3     1  UNL1        0.0022
     32 C         142.2403  137.6416  162.5891 C.3     1  UNL1        0.0022
     33 C         138.9340  143.5983  162.7497 C.3     1  UNL1        0.0464
     34 C         139.3404  142.9492  164.0395 C.ar    1  UNL1       -0.0204
     35 C         138.5562  141.7878  164.5744 C.ar    1  UNL1       -0.0029
     36 C         138.9627  141.1388  165.8642 C.ar    1  UNL1        0.0143
     37 C         140.1533  141.6512  166.6191 C.ar    1  UNL1        0.0503
     38 C         140.9375  142.8126  166.0841 C.ar    1  UNL1        0.0143
     39 C         140.5310  143.4617  164.7944 C.ar    1  UNL1       -0.0029
     40 N         140.5597  141.0022  167.9089 N.am    1  UNL1       -0.2826
     41 C         141.8646  140.2681  168.0006 C.2     1  UNL1        0.2443
     42 O         142.7631  140.1831  166.8025 O.2     1  UNL1       -0.2730
     43 H         139.9700  141.0580  168.6952 H       1  UNL1        0.1549
     44 C         142.2710  139.6191  169.2904 C.3     1  UNL1        0.1533
     45 N         142.8581  138.2388  169.2830 N.am    1  UNL1       -0.2978
     46 C         143.8022  137.8195  170.3707 C.2     1  UNL1        0.2272
     47 O         144.1591  138.7804  171.4657 O.2     1  UNL1       -0.2747
     48 H         142.6239  137.6080  168.5643 H       1  UNL1        0.1498
     49 C         144.3893  136.4391  170.3633 C.3     1  UNL1        0.1113
     50 C         145.1593  135.9453  171.5520 C.ar    1  UNL1       -0.0131
     51 C         146.1277  136.8544  172.2489 C.ar    1  UNL1       -0.0038
     52 C         146.8976  136.3605  173.4376 C.ar    1  UNL1       -0.0003
     53 C         146.6991  134.9574  173.9296 C.ar    1  UNL1       -0.0000
     54 C         145.7307  134.0483  173.2328 C.ar    1  UNL1       -0.0003
     55 C         144.9608  134.5422  172.0440 C.ar    1  UNL1       -0.0038
     56 C         142.0902  140.3503  170.5876 C.3     1  UNL1        0.0562
     57 C         141.4487  141.7061  170.6012 C.ar    1  UNL1       -0.0094
     58 C         139.9823  141.8392  170.8872 C.ar    1  UNL1       -0.0034
     59 C         139.3407  143.1950  170.9008 C.ar    1  UNL1       -0.0003
     60 C         140.1657  144.4178  170.6284 C.ar    1  UNL1        0.0008
     61 C         141.6321  144.2848  170.3424 C.ar    1  UNL1        0.0111
     62 C         142.2736  142.9290  170.3288 C.ar    1  UNL1        0.0538
     63 CL        143.7401  142.7959  170.0428 Cl      1  UNL1       -0.0826
     64 O         143.6407  141.5290  152.8946 O.3     1  UNL1       -0.3287
     65 C         145.1309  141.4519  152.7416 C.3     1  UNL1        0.2643
     66 O         145.7861  140.1388  152.4310 O.3     1  UNL1       -0.3311
     67 C         147.2762  140.0617  152.2781 C.3     1  UNL1        0.1194
     68 C         147.9313  138.7486  151.9675 C.3     1  UNL1        0.0322
     69 C         148.1113  141.2977  152.4357 C.3     1  UNL1        0.0482
     70 C         147.4562  142.6109  152.7464 C.3     1  UNL1        0.0921
     71 C         145.9659  142.6880  152.8993 C.3     1  UNL1        0.1815
     72 O         145.3108  144.0011  153.2099 O.3     1  UNL1       -0.3783
     73 H         145.9881  144.6921  153.2786 H       1  UNL1        0.2106
     74 N         148.2912  143.8469  152.9040 N.3     1  UNL1       -0.2692
     75 C         147.6527  145.1330  153.3381 C.3     1  UNL1        0.0897
     76 C         149.7646  143.7970  152.6278 C.3     1  UNL1        0.0897
     77 O         143.8785  138.0835  154.9763 O.3     1  UNL1       -0.3324
     78 C         141.1292  136.0324  152.9802 C.3     1  UNL1        0.1246
     79 C         140.0816  135.2773  152.2171 C.3     1  UNL1        0.0324
     80 C         141.9309  137.1838  153.5109 C.3     1  UNL1        0.0910
     81 C         143.0768  136.9321  154.4456 C.3     1  UNL1        0.2375
     82 O         143.4210  135.5291  154.8494 O.3     1  UNL1       -0.3304
     83 C         142.6193  134.3778  154.3187 C.3     1  UNL1        0.1468
     84 C         142.9635  132.9748  154.7226 C.3     1  UNL1        0.0348
     85 C         141.4734  134.6294  153.3840 C.3     1  UNL1        0.1623
     86 O         140.6717  133.4781  152.8533 O.3     1  UNL1       -0.3796
     87 H         139.9744  133.8124  152.2677 H       1  UNL1        0.2105
     88 C         140.2416  138.4735  153.0371 C.3     1  UNL1        0.1740
     89 O         140.4211  137.1731  152.3112 O.3     1  UNL1       -0.3532
@<TRIPOS>BOND
     1    88    89    1
     2    89    78    1
     3    78    79    1
     4    78    80    1
     5    80    81    1
     6    81    77    1
     7     1    77    1
     8     1     2    1
     9     2     3    1
    10     2     4    1
    11     4    64    1
    12    65    64    1
    13    65    66    1
    14    66    67    1
    15    67    68    1
    16    67    69    1
    17    69    70    1
    18    70    74    1
    19    74    75    1
    20    74    76    1
    21    70    71    1
    22    71    72    1
    23     4     5    1
    24     5     6    1
    25     5     7    1
    26     5     8    1
    27     8     9    1
    28     9    10    1
    29     9    11    1
    30    11    12    1
    31    12    13    1
    32    12    14   am
    33    14    15    2
    34    14    16    1
    35    16    17    1
    36    17    33    1
    37    33    34    1
    38    34    35   ar
    39    35    36   ar
    40    36    37   ar
    41    37    40    1
    42    40    41   am
    43    41    42    2
    44    41    44    1
    45    44    56    1
    46    56    57    1
    47    57    58   ar
    48    58    59   ar
    49    59    60   ar
    50    60    61   ar
    51    61    62   ar
    52    62    63    1
    53    44    45    1
    54    45    46   am
    55    46    47    2
    56    46    49    1
    57    49    50    1
    58    50    51   ar
    59    51    52   ar
    60    52    53   ar
    61    53    54   ar
    62    54    55   ar
    63    37    38   ar
    64    38    39   ar
    65    17    18    1
    66    18    19   am
    67    19    20    2
    68    19    21    1
    69    21    30    1
    70    30    31    1
    71    30    32    1
    72    21    22    1
    73    22    23   am
    74    23    24    2
    75    23    25    1
    76    25    26    1
    77    81    82    1
    78    82    83    1
    79    83    84    1
    80    83    85    1
    81    85    86    1
    82    85    78    1
    83    25     1    1
    84    71    65    1
    85    39    34   ar
    86    62    57   ar
    87    55    50   ar
    88    72    73    1
    89     7    27    1
    90    40    43    1
    91    45    48    1
    92    18    28    1
    93    22    29    1
    94    86    87    1
@<TRIPOS>MOLECULE
*****
 89 94 0 0 0
SMALL
GASTEIGER

@<TRIPOS>ATOM
      1 C         143.7759  138.9676  155.6162 C.3     1  UNL1        0.1286
      2 C         143.9252  139.9224  154.4689 C.3     1  UNL1        0.0574
      3 C         144.6913  139.0713  153.5000 C.3     1  UNL1        0.0051
      4 C         143.7931  141.1899  153.6777 C.3     1  UNL1        0.1444
      5 C         143.3972  142.5989  153.3494 C.3     1  UNL1        0.1134
      6 C         144.1556  141.9313  152.2407 C.3     1  UNL1        0.0318
      7 O         143.5925  143.4876  152.1569 O.3     1  UNL1       -0.3844
      8 C         142.7911  143.9593  153.5285 C.3     1  UNL1        0.0310
      9 C         142.0567  145.0873  154.1905 C.3     1  UNL1        0.0223
     10 C         142.1361  146.1343  153.1193 C.3     1  UNL1        0.0018
     11 C         141.2931  145.8304  155.2463 C.3     1  UNL1        0.0935
     12 N         140.6035  146.0885  156.5531 N.am    1  UNL1       -0.2777
     13 C         140.1488  147.5034  156.3501 C.3     1  UNL1        0.1148
     14 C         140.0809  145.8265  157.9345 C.2     1  UNL1        0.2274
     15 O         139.4342  147.1452  158.2392 O.2     1  UNL1       -0.2748
     16 C         139.7961  145.0799  159.2039 C.3     1  UNL1        0.1051
     17 C         139.7873  143.9496  160.1899 C.3     1  UNL1        0.0850
     18 N         140.0559  142.5882  160.7594 N.am    1  UNL1       -0.3038
     19 C         140.5656  141.1794  160.8353 C.2     1  UNL1        0.2403
     20 O         140.0969  140.7903  162.2060 O.2     1  UNL1       -0.2733
     21 C         141.2474  139.9137  160.4075 C.3     1  UNL1        0.1485
     22 N         142.0094  138.9620  159.5337 N.am    1  UNL1       -0.2983
     23 C         142.7486  138.4527  158.3320 C.2     1  UNL1        0.2247
     24 O         143.0823  137.0614  158.7827 O.2     1  UNL1       -0.2750
     25 C         143.3652  138.4546  156.9645 C.3     1  UNL1        0.1037
     26 C         143.7031  137.3105  157.1947 C.3     1  UNL1        0.0121
     27 H         144.0863  143.0079  151.4735 H       1  UNL1        0.2103
     28 H         139.6254  142.6725  161.6407 H       1  UNL1        0.1494
     29 H         142.0501  138.1717  160.1194 H       1  UNL1        0.1498
     30 C         141.0294  139.0594  161.6210 C.3     1  UNL1        0.0269
     31 C         142.1954  138.6579  162.4749 C.3     1  UNL1        0.0022
     32 C         139.6453  138.6067  161.9806 C.3     1  UNL1        0.0022
     33 C         139.0327  144.5785  161.3235 C.3     1  UNL1        0.0464
     34 C         138.9617  143.8866  162.6525 C.ar    1  UNL1       -0.0204
     35 C         137.7807  143.0243  162.9871 C.ar    1  UNL1       -0.0029
     36 C         137.7097  142.3324  164.3160 C.ar    1  UNL1        0.0143
     37 C         138.8197  142.5028  165.3105 C.ar    1  UNL1        0.0503
     38 C         140.0007  143.3650  164.9759 C.ar    1  UNL1        0.0143
     39 C         140.0717  144.0569  163.6470 C.ar    1  UNL1       -0.0029
     40 N         138.7487  141.8108  166.6395 N.am    1  UNL1       -0.2826
     41 C         139.4941  140.5276  166.8578 C.2     1  UNL1        0.2443
     42 O         140.3106  139.9363  165.7470 O.2     1  UNL1       -0.2730
     43 H         138.2128  142.1989  167.3685 H       1  UNL1        0.1549
     44 C         139.4231  139.8357  168.1867 C.3     1  UNL1        0.1533
     45 N         138.2372  138.9818  168.5252 N.am    1  UNL1       -0.2978
     46 C         137.4287  139.2744  169.7543 C.2     1  UNL1        0.2272
     47 O         137.8059  140.4209  170.6449 O.2     1  UNL1       -0.2747
     48 H         137.9895  138.2293  167.9407 H       1  UNL1        0.1498
     49 C         136.2428  138.4205  170.0928 C.3     1  UNL1        0.1113
     50 C         136.0903  137.8635  171.4772 C.ar    1  UNL1       -0.0131
     51 C         134.9411  138.2975  172.3379 C.ar    1  UNL1       -0.0038
     52 C         134.7886  137.7405  173.7222 C.ar    1  UNL1       -0.0003
     53 C         135.7855  136.7494  174.2459 C.ar    1  UNL1       -0.0000
     54 C         136.9347  136.3154  173.3852 C.ar    1  UNL1       -0.0003
     55 C         137.0871  136.8724  172.0009 C.ar    1  UNL1       -0.0038
     56 C         140.5379  139.9976  169.1772 C.3     1  UNL1        0.0562
     57 C         140.9529  141.3688  169.6217 C.ar    1  UNL1       -0.0094
     58 C         139.9820  142.5093  169.5410 C.ar    1  UNL1       -0.0034
     59 C         140.3970  143.8806  169.9855 C.ar    1  UNL1       -0.0003
     60 C         141.7830  144.1112  170.5108 C.ar    1  UNL1        0.0008
     61 C         142.7539  142.9706  170.5915 C.ar    1  UNL1        0.0111
     62 C         142.3389  141.5995  170.1470 C.ar    1  UNL1        0.0538
     63 CL        143.3098  140.4589  170.2277 Cl      1  UNL1       -0.0826
     64 O         144.5106  140.8046  152.4181 O.3     1  UNL1       -0.3287
     65 C         146.0101  140.8013  152.3801 C.3     1  UNL1        0.2643
     66 O         146.7529  139.5116  152.1932 O.3     1  UNL1       -0.3311
     67 C         148.2523  139.5084  152.1553 C.3     1  UNL1        0.1194
     68 C         148.9951  138.2186  151.9684 C.3     1  UNL1        0.0322
     69 C         149.0092  140.7949  152.3043 C.3     1  UNL1        0.0482
     70 C         148.2664  142.0846  152.4912 C.3     1  UNL1        0.0921
     71 C         146.7669  142.0878  152.5291 C.3     1  UNL1        0.1815
     72 O         146.0241  143.3775  152.7160 O.3     1  UNL1       -0.3783
     73 H         146.6582  144.1073  152.7954 H       1  UNL1        0.2106
     74 N         149.0232  143.3711  152.6401 N.3     1  UNL1       -0.2692
     75 C         148.3312  144.5909  153.1724 C.3     1  UNL1        0.0897
     76 C         150.4718  143.4379  152.2570 C.3     1  UNL1        0.0897
     77 O         144.4871  137.7657  155.0689 O.3     1  UNL1       -0.3324
     78 C         141.7719  135.3564  153.4647 C.3     1  UNL1        0.1246
     79 C         140.7365  134.4641  152.8470 C.3     1  UNL1        0.0324
     80 C         142.5450  136.5979  153.7983 C.3     1  UNL1        0.0910
     81 C         143.7140  136.5243  154.7352 C.3     1  UNL1        0.2375
     82 O         144.1101  135.2093  155.3385 O.3     1  UNL1       -0.3304
     83 C         143.3370  133.9679  155.0049 C.3     1  UNL1        0.1468
     84 C         143.7331  132.6529  155.6082 C.3     1  UNL1        0.0348
     85 C         142.1680  134.0414  154.0680 C.3     1  UNL1        0.1623
     86 O         141.3949  132.8001  153.7344 O.3     1  UNL1       -0.3796
     87 H         140.6774  133.0212  153.1203 H       1  UNL1        0.2105
     88 C         140.5426  137.6376  153.2772 C.3     1  UNL1        0.1740
     89 O         141.0163  136.3615  152.6468 O.3     1  UNL1       -0.3532
@<TRIPOS>BOND
     1    88    89    1
     2    89    78    1
     3    78    79    1
     4    78    80    1
     5    80    81    1
     6    81    77    1
     7     1    77    1
     8     1     2    1
     9     2     3    1
    10     2     4    1
    11     4    64    1
    12    65    64    1
    13    65    66    1
    14    66    67    1
    15    67    68    1
    16    67    69    1
    17    69    70    1
    18    70    74    1
    19    74    75    1
    20    74    76    1
    21    70    71    1
    22    71    72    1
    23     4     5    1
    24     5     6    1
    25     5     7    1
    26     5     8    1
    27     8     9    1
    28     9    10    1
    29     9    11    1
    30    11    12    1
    31    12    13    1
    32    12    14   am
    33    14    15    2
    34    14    16    1
    35    16    17    1
    36    17    33    1
    37    33    34    1
    38    34    35   ar
    39    35    36   ar
    40    36    37   ar
    41    37    40    1
    42    40    41   am
    43    41    42    2
    44    41    44    1
    45    44    56    1
    46    56    57    1
    47    57    58   ar
    48    58    59   ar
    49    59    60   ar
    50    60    61   ar
    51    61    62   ar
    52    62    63    1
    53    44    45    1
    54    45    46   am
    55    46    47    2
    56    46    49    1
    57    49    50    1
    58    50    51   ar
    59    51    52   ar
    60    52    53   ar
    61    53    54   ar
    62    54    55   ar
    63    37    38   ar
    64    38    39   ar
    65    17    18    1
    66    18    19   am
    67    19    20    2
    68    19    21    1
    69    21    30    1
    70    30    31    1
    71    30    32    1
    72    21    22    1
    73    22    23   am
    74    23    24    2
    75    23    25    1
    76    25    26    1
    77    81    82    1
    78    82    83    1
    79    83    84    1
    80    83    85    1
    81    85    86    1
    82    85    78    1
    83    25     1    1
    84    71    65    1
    85    39    34   ar
    86    62    57   ar
    87    55    50   ar
    88    72    73    1
    89     7    27    1
    90    40    43    1
    91    45    48    1
    92    18    28    1
    93    22    29    1
    94    86    87    1
@<TRIPOS>MOLECULE
*****
 89 94 0 0 0
SMALL
GASTEIGER

@<TRIPOS>ATOM
      1 C         139.8143  142.6900  162.6784 C.3     1  UNL1        0.1286
      2 C         141.2578  143.0121  162.9292 C.3     1  UNL1        0.0574
      3 C         141.1895  143.4976  164.3468 C.3     1  UNL1        0.0051
      4 C         142.7263  143.1557  162.6591 C.3     1  UNL1        0.1444
      5 C         144.0215  143.1015  161.9046 C.3     1  UNL1        0.1134
      6 C         144.1812  143.6176  163.3038 C.3     1  UNL1        0.0318
      7 O         145.4413  143.4496  162.2408 O.3     1  UNL1       -0.3844
      8 C         144.9685  142.8567  160.7673 C.3     1  UNL1        0.0310
      9 C         145.4395  142.4546  159.4012 C.3     1  UNL1        0.0223
     10 C         146.9080  142.7352  159.5222 C.3     1  UNL1        0.0018
     11 C         145.3708  141.9493  157.9905 C.3     1  UNL1        0.0935
     12 N         144.7717  141.4091  156.7260 N.am    1  UNL1       -0.2777
     13 C         145.9948  141.3055  155.8638 C.3     1  UNL1        0.1148
     14 C         143.7231  140.9069  155.7781 C.2     1  UNL1        0.2274
     15 O         144.5609  140.6188  154.5677 O.2     1  UNL1       -0.2748
     16 C         142.3667  140.5107  155.2752 C.3     1  UNL1        0.1051
     17 C         140.8855  140.2738  155.2850 C.3     1  UNL1        0.0850
     18 N         139.4797  140.2283  155.8062 N.am    1  UNL1       -0.3038
     19 C         138.3392  140.3804  156.7685 C.2     1  UNL1        0.2403
     20 O         137.1984  139.8988  155.9220 O.2     1  UNL1       -0.2733
     21 C         137.6179  140.7094  158.0419 C.3     1  UNL1        0.1485
     22 N         137.4133  141.1710  159.4543 N.am    1  UNL1       -0.2983
     23 C         137.7529  141.7028  160.8151 C.2     1  UNL1        0.2247
     24 O         136.3966  141.7072  161.4558 O.2     1  UNL1       -0.2750
     25 C         138.5910  142.2331  161.9405 C.3     1  UNL1        0.1037
     26 C         137.5616  142.2912  162.5833 C.3     1  UNL1        0.0121
     27 H         145.4867  143.7765  163.1529 H       1  UNL1        0.2103
     28 H         139.0061  139.8755  155.0185 H       1  UNL1        0.1494
     29 H         136.4411  141.0456  159.5466 H       1  UNL1        0.1498
     30 C         136.2119  140.3487  157.6633 C.3     1  UNL1        0.0269
     31 C         135.6426  140.8191  156.3578 C.3     1  UNL1        0.0022
     32 C         135.3754  139.5177  158.5905 C.3     1  UNL1        0.0022
     33 C         140.6805  139.7530  153.8933 C.3     1  UNL1        0.0464
     34 C         140.8099  138.2846  153.6154 C.ar    1  UNL1       -0.0204
     35 C         139.6080  137.4921  153.1945 C.ar    1  UNL1       -0.0029
     36 C         139.7375  136.0238  152.9166 C.ar    1  UNL1        0.0143
     37 C         141.0690  135.3480  153.0597 C.ar    1  UNL1        0.0503
     38 C         142.2709  136.1405  153.4806 C.ar    1  UNL1        0.0143
     39 C         142.1415  137.6088  153.7585 C.ar    1  UNL1       -0.0029
     40 N         141.1984  133.8796  152.7818 N.am    1  UNL1       -0.2826
     41 C         141.5365  132.9325  153.8947 C.2     1  UNL1        0.2443
     42 O         141.7451  133.4539  155.2857 O.2     1  UNL1       -0.2730
     43 H         141.0615  133.5375  151.8688 H       1  UNL1        0.1549
     44 C         141.6659  131.4643  153.6168 C.3     1  UNL1        0.1533
     45 N         142.2198  130.5481  154.6675 N.am    1  UNL1       -0.2978
     46 C         143.6331  130.0561  154.5642 C.2     1  UNL1        0.2272
     47 O         144.4924  130.4802  153.4103 O.2     1  UNL1       -0.2747
     48 H         141.6558  130.2696  155.4248 H       1  UNL1        0.1498
     49 C         144.1870  129.1399  155.6148 C.3     1  UNL1        0.1113
     50 C         143.2568  128.3567  156.4931 C.ar    1  UNL1       -0.0131
     51 C         143.3250  128.5108  157.9836 C.ar    1  UNL1       -0.0038
     52 C         142.3948  127.7276  158.8618 C.ar    1  UNL1       -0.0003
     53 C         141.3963  126.7904  158.2496 C.ar    1  UNL1       -0.0000
     54 C         141.3282  126.6364  156.7591 C.ar    1  UNL1       -0.0003
     55 C         142.2583  127.4195  155.8809 C.ar    1  UNL1       -0.0038
     56 C         141.2415  130.9121  152.2883 C.3     1  UNL1        0.0562
     57 C         140.7756  129.4904  152.1812 C.ar    1  UNL1       -0.0094
     58 C         141.7769  128.3745  152.1350 C.ar    1  UNL1       -0.0034
     59 C         141.3110  126.9526  152.0280 C.ar    1  UNL1       -0.0003
     60 C         139.8437  126.6468  151.9671 C.ar    1  UNL1        0.0008
     61 C         138.8424  127.7627  152.0133 C.ar    1  UNL1        0.0111
     62 C         139.3083  129.1844  152.1204 C.ar    1  UNL1        0.0538
     63 CL        138.3070  130.3004  152.1666 Cl      1  UNL1       -0.0826
     64 O         143.1976  143.6940  163.9775 O.3     1  UNL1       -0.3287
     65 C         143.3095  142.7820  165.1632 C.3     1  UNL1        0.2643
     66 O         143.5702  143.3520  166.5259 O.3     1  UNL1       -0.3311
     67 C         143.6821  142.4401  167.7115 C.3     1  UNL1        0.1194
     68 C         143.9428  143.0101  169.0742 C.3     1  UNL1        0.0322
     69 C         143.5334  140.9580  167.5345 C.3     1  UNL1        0.0482
     70 C         143.2727  140.3879  166.1717 C.3     1  UNL1        0.0921
     71 C         143.1608  141.3000  164.9860 C.3     1  UNL1        0.1815
     72 O         142.9001  140.7299  163.6233 O.3     1  UNL1       -0.3783
     73 H         142.8310  139.7643  163.6845 H       1  UNL1        0.2106
     74 N         143.1239  138.9059  165.9946 N.3     1  UNL1       -0.2692
     75 C         142.0181  138.3599  165.1407 C.3     1  UNL1        0.0897
     76 C         144.0809  137.9698  166.6712 C.3     1  UNL1        0.0897
     77 O         139.2157  143.0572  164.0038 O.3     1  UNL1       -0.3324
     78 C         140.0246  141.5814  167.5980 C.3     1  UNL1        0.1246
     79 C         140.3400  141.0442  168.9625 C.3     1  UNL1        0.0324
     80 C         139.9370  142.5369  166.4449 C.3     1  UNL1        0.0910
     81 C         139.3034  142.1017  165.1569 C.3     1  UNL1        0.2375
     82 O         138.7575  140.7112  165.0218 O.3     1  UNL1       -0.3304
     83 C         138.8451  139.7558  166.1748 C.3     1  UNL1        0.1468
     84 C         138.2992  138.3652  166.0397 C.3     1  UNL1        0.0348
     85 C         139.4787  140.1909  167.4629 C.3     1  UNL1        0.1623
     86 O         139.5664  139.2355  168.6159 O.3     1  UNL1       -0.3796
     87 H         140.0005  139.6722  169.3654 H       1  UNL1        0.2105
     88 C         140.1634  143.3481  169.4979 C.3     1  UNL1        0.1740
     89 O         140.6801  142.7854  168.2070 O.3     1  UNL1       -0.3532
@<TRIPOS>BOND
     1    88    89    1
     2    89    78    1
     3    78    79    1
     4    78    80    1
     5    80    81    1
     6    81    77    1
     7     1    77    1
     8     1     2    1
     9     2     3    1
    10     2     4    1
    11     4    64    1
    12    65    64    1
    13    65    66    1
    14    66    67    1
    15    67    68    1
    16    67    69    1
    17    69    70    1
    18    70    74    1
    19    74    75    1
    20    74    76    1
    21    70    71    1
    22    71    72    1
    23     4     5    1
    24     5     6    1
    25     5     7    1
    26     5     8    1
    27     8     9    1
    28     9    10    1
    29     9    11    1
    30    11    12    1
    31    12    13    1
    32    12    14   am
    33    14    15    2
    34    14    16    1
    35    16    17    1
    36    17    33    1
    37    33    34    1
    38    34    35   ar
    39    35    36   ar
    40    36    37   ar
    41    37    40    1
    42    40    41   am
    43    41    42    2
    44    41    44    1
    45    44    56    1
    46    56    57    1
    47    57    58   ar
    48    58    59   ar
    49    59    60   ar
    50    60    61   ar
    51    61    62   ar
    52    62    63    1
    53    44    45    1
    54    45    46   am
    55    46    47    2
    56    46    49    1
    57    49    50    1
    58    50    51   ar
    59    51    52   ar
    60    52    53   ar
    61    53    54   ar
    62    54    55   ar
    63    37    38   ar
    64    38    39   ar
    65    17    18    1
    66    18    19   am
    67    19    20    2
    68    19    21    1
    69    21    30    1
    70    30    31    1
    71    30    32    1
    72    21    22    1
    73    22    23   am
    74    23    24    2
    75    23    25    1
    76    25    26    1
    77    81    82    1
    78    82    83    1
    79    83    84    1
    80    83    85    1
    81    85    86    1
    82    85    78    1
    83    25     1    1
    84    71    65    1
    85    39    34   ar
    86    62    57   ar
    87    55    50   ar
    88    72    73    1
    89     7    27    1
    90    40    43    1
    91    45    48    1
    92    18    28    1
    93    22    29    1
    94    86    87    1
