@<TRIPOS>MOLECULE
*****
 39 44 0 0 0
SMALL
GASTEIGER

@<TRIPOS>ATOM
      1 N         142.5467  140.3591  165.7549 N.3     1  UNL1       -0.2676
      2 C         141.4004  141.1545  165.2042 C.3     1  UNL1        0.0746
      3 C         141.4273  141.6203  163.7786 C.3     1  UNL1        0.0449
      4 C         142.6004  141.2908  162.9039 C.3     1  UNL1        0.1391
      5 C         143.7466  140.4954  163.4546 C.3     1  UNL1        0.0449
      6 C         143.7198  140.0296  164.8801 C.3     1  UNL1        0.0746
      7 C         143.6995  141.0393  161.9146 C.2     1  UNL1        0.2529
      8 O         144.9648  140.2776  162.1772 O.2     1  UNL1       -0.2724
      9 N         143.3112  141.6831  160.6165 N.am    1  UNL1       -0.1907
     10 C         141.9720  142.3326  160.8036 C.2     1  UNL1        0.3219
     11 O         141.2067  143.0912  159.7603 O.2     1  UNL1       -0.2512
     12 N         141.5327  142.0902  162.2172 N.am    1  UNL1       -0.2222
     13 C         140.2509  142.5638  162.8357 C.ar    1  UNL1        0.1453
     14 C         139.0088  141.7313  162.7180 C.ar    1  UNL1        0.0922
     15 C         137.7270  142.2051  163.3365 C.ar    1  UNL1        0.2259
     16 O         136.4848  141.3725  163.2188 O.3     1  UNL1       -0.4919
     17 N         137.6873  143.5114  164.0727 N.ar    1  UNL1       -0.1894
     18 C         138.9295  144.3439  164.1904 C.ar    1  UNL1        0.2027
     19 N         140.2112  143.8702  163.5719 N.ar    1  UNL1       -0.2084
     20 H         136.5096  140.5565  162.7589 H       1  UNL1        0.2938
     21 C         144.1200  141.6783  159.3533 C.ar    1  UNL1        0.0623
     22 C         143.9036  140.6048  158.3283 C.ar    1  UNL1        0.0166
     23 C         144.7124  140.5999  157.0651 C.ar    1  UNL1        0.0162
     24 C         145.7375  141.6686  156.8268 C.ar    1  UNL1        0.0539
     25 C         145.9539  142.7422  157.8518 C.ar    1  UNL1        0.0162
     26 C         145.1451  142.7470  159.1150 C.ar    1  UNL1        0.0166
     27 N         146.5463  141.6638  155.5635 N.am    1  UNL1       -0.2581
     28 C         146.2265  141.5990  154.0995 C.3     1  UNL1        0.1078
     29 C         147.6901  141.6570  153.7771 C.3     1  UNL1        0.1074
     30 C         148.0102  141.7217  155.2411 C.2     1  UNL1        0.2311
     31 O         149.2715  141.8085  156.0483 O.2     1  UNL1       -0.2745
     32 C         142.5199  139.8931  167.1805 C.3     1  UNL1        0.1183
     33 C         143.4040  142.4178  168.5388 C.3     1  UNL1        0.0323
     34 C         142.0605  141.8285  168.8519 C.ar    1  UNL1       -0.0069
     35 C         141.1592  142.5016  169.8440 C.ar    1  UNL1       -0.0015
     36 C         139.8157  141.9123  170.1572 C.ar    1  UNL1        0.0203
     37 C         139.3737  140.6501  169.4781 C.ar    1  UNL1        0.0985
     38 N         140.2751  139.9769  168.4858 N.ar    1  UNL1       -0.2471
     39 C         141.6185  140.5662  168.1727 C.ar    1  UNL1        0.0712
@<TRIPOS>BOND
     1    33    34    1
     2    34    35   ar
     3    35    36   ar
     4    36    37   ar
     5    37    38   ar
     6    38    39   ar
     7    39    32    1
     8    32     1    1
     9     1     2    1
    10     2     3    1
    11     3     4    1
    12     4     5    1
    13     5     6    1
    14     4     7    1
    15     7     8    2
    16     7     9   am
    17     9    21    1
    18    21    22   ar
    19    22    23   ar
    20    23    24   ar
    21    24    27    1
    22    27    28    1
    23    28    29    1
    24    29    30    1
    25    30    31    2
    26    24    25   ar
    27    25    26   ar
    28     9    10   am
    29    10    11    2
    30    10    12   am
    31    12    13    1
    32    13    14   ar
    33    14    15   ar
    34    15    16    1
    35    15    17   ar
    36    17    18   ar
    37    18    19   ar
    38    39    34   ar
    39     6     1    1
    40    26    21   ar
    41    19    13   ar
    42    12     4    1
    43    30    27   am
    44    16    20    1
@<TRIPOS>MOLECULE
*****
 39 44 0 0 0
SMALL
GASTEIGER

@<TRIPOS>ATOM
      1 N         140.4577  140.1261  165.5970 N.3     1  UNL1       -0.2676
      2 C         141.1175  141.3189  164.9712 C.3     1  UNL1        0.0746
      3 C         141.4621  141.3055  163.5114 C.3     1  UNL1        0.0449
      4 C         141.1469  140.0992  162.6774 C.3     1  UNL1        0.1391
      5 C         140.4872  138.9063  163.3032 C.3     1  UNL1        0.0449
      6 C         140.1425  138.9198  164.7630 C.3     1  UNL1        0.0746
      7 C         140.8941  138.9707  161.7221 C.2     1  UNL1        0.2529
      8 O         140.2523  137.6574  162.0590 O.2     1  UNL1       -0.2724
      9 N         141.3958  139.3859  160.3708 N.am    1  UNL1       -0.1907
     10 C         141.9587  140.7712  160.4910 C.2     1  UNL1        0.3219
     11 O         142.5684  141.5745  159.3807 O.2     1  UNL1       -0.2512
     12 N         141.8049  141.2120  161.9165 N.am    1  UNL1       -0.2222
     13 C         142.2338  142.5334  162.4819 C.ar    1  UNL1        0.1453
     14 C         141.3188  143.7189  162.3951 C.ar    1  UNL1        0.0922
     15 C         141.7477  145.0403  162.9606 C.ar    1  UNL1        0.2259
     16 O         140.8328  146.2258  162.8737 O.3     1  UNL1       -0.4919
     17 N         143.0916  145.1764  163.6129 N.ar    1  UNL1       -0.1894
     18 C         144.0066  143.9910  163.6997 C.ar    1  UNL1        0.2027
     19 N         143.5777  142.6695  163.1342 N.ar    1  UNL1       -0.2084
     20 H         139.9933  146.1408  162.4663 H       1  UNL1        0.2938
     21 C         141.3438  138.5609  159.1192 C.ar    1  UNL1        0.0623
     22 C         140.0616  138.4461  158.3494 C.ar    1  UNL1        0.0166
     23 C         140.0095  137.6211  157.0978 C.ar    1  UNL1        0.0162
     24 C         141.2396  136.9109  156.6159 C.ar    1  UNL1        0.0539
     25 C         142.5219  137.0257  157.3858 C.ar    1  UNL1        0.0162
     26 C         142.5740  137.8507  158.6374 C.ar    1  UNL1        0.0166
     27 N         141.1876  136.0858  155.3643 N.am    1  UNL1       -0.2581
     28 C         140.8748  136.3627  153.9237 C.3     1  UNL1        0.1078
     29 C         141.1139  134.9191  153.5943 C.3     1  UNL1        0.1074
     30 C         141.4267  134.6421  155.0349 C.2     1  UNL1        0.2311
     31 O         141.8170  133.4254  155.8207 O.2     1  UNL1       -0.2745
     32 C         140.1131  140.1394  167.0568 C.3     1  UNL1        0.1183
     33 C         142.8290  139.1886  167.9054 C.3     1  UNL1        0.0323
     34 C         142.2874  140.4825  168.4370 C.ar    1  UNL1       -0.0069
     35 C         143.1037  141.3009  169.3929 C.ar    1  UNL1       -0.0015
     36 C         142.5622  142.5948  169.9245 C.ar    1  UNL1        0.0203
     37 C         141.2043  143.0702  169.5002 C.ar    1  UNL1        0.0985
     38 N         140.3879  142.2518  168.5443 N.ar    1  UNL1       -0.2471
     39 C         140.9294  140.9579  168.0127 C.ar    1  UNL1        0.0712
@<TRIPOS>BOND
     1    33    34    1
     2    34    35   ar
     3    35    36   ar
     4    36    37   ar
     5    37    38   ar
     6    38    39   ar
     7    39    32    1
     8    32     1    1
     9     1     2    1
    10     2     3    1
    11     3     4    1
    12     4     5    1
    13     5     6    1
    14     4     7    1
    15     7     8    2
    16     7     9   am
    17     9    21    1
    18    21    22   ar
    19    22    23   ar
    20    23    24   ar
    21    24    27    1
    22    27    28    1
    23    28    29    1
    24    29    30    1
    25    30    31    2
    26    24    25   ar
    27    25    26   ar
    28     9    10   am
    29    10    11    2
    30    10    12   am
    31    12    13    1
    32    13    14   ar
    33    14    15   ar
    34    15    16    1
    35    15    17   ar
    36    17    18   ar
    37    18    19   ar
    38    39    34   ar
    39     6     1    1
    40    26    21   ar
    41    19    13   ar
    42    12     4    1
    43    30    27   am
    44    16    20    1
@<TRIPOS>MOLECULE
*****
 39 44 0 0 0
SMALL
GASTEIGER

@<TRIPOS>ATOM
      1 N         141.7252  139.6853  165.9349 N.3     1  UNL1       -0.2676
      2 C         141.0571  140.9089  165.3813 C.3     1  UNL1        0.0746
      3 C         140.7637  141.0039  163.9134 C.3     1  UNL1        0.0449
      4 C         141.1384  139.8754  162.9990 C.3     1  UNL1        0.1391
      5 C         141.8065  138.6518  163.5526 C.3     1  UNL1        0.0449
      6 C         142.0999  138.5568  165.0205 C.3     1  UNL1        0.0746
      7 C         141.4530  138.8326  161.9677 C.2     1  UNL1        0.2529
      8 O         142.1163  137.5117  162.2232 O.2     1  UNL1       -0.2724
      9 N         140.9879  139.3426  160.6359 N.am    1  UNL1       -0.1907
     10 C         140.3857  140.7006  160.8442 C.2     1  UNL1        0.3219
     11 O         139.7945  141.5757  159.7791 O.2     1  UNL1       -0.2512
     12 N         140.4788  141.0299  162.3046 N.am    1  UNL1       -0.2222
     13 C         139.9968  142.2920  162.9563 C.ar    1  UNL1        0.1453
     14 C         140.9041  143.4830  163.0471 C.ar    1  UNL1        0.0922
     15 C         140.4221  144.7451  163.6988 C.ar    1  UNL1        0.2259
     16 O         141.3294  145.9361  163.7896 O.3     1  UNL1       -0.4919
     17 N         139.0327  144.8162  164.2599 N.ar    1  UNL1       -0.1894
     18 C         138.1254  143.6252  164.1692 C.ar    1  UNL1        0.2027
     19 N         138.6075  142.3631  163.5174 N.ar    1  UNL1       -0.2084
     20 H         142.1973  145.8917  163.4391 H       1  UNL1        0.2938
     21 C         141.1044  138.6213  159.3259 C.ar    1  UNL1        0.0623
     22 C         139.8843  138.3950  158.4832 C.ar    1  UNL1        0.0166
     23 C         140.0009  137.6737  157.1732 C.ar    1  UNL1        0.0162
     24 C         141.3374  137.1787  156.7059 C.ar    1  UNL1        0.0539
     25 C         142.5575  137.4050  157.5486 C.ar    1  UNL1        0.0162
     26 C         142.4410  138.1263  158.8586 C.ar    1  UNL1        0.0166
     27 N         141.4539  136.4574  155.3959 N.am    1  UNL1       -0.2581
     28 C         141.5301  136.8761  153.9576 C.3     1  UNL1        0.1078
     29 C         141.6187  135.4373  153.5433 C.3     1  UNL1        0.1074
     30 C         141.5426  135.0184  154.9816 C.2     1  UNL1        0.2311
     31 O         141.5514  133.7048  155.7057 O.2     1  UNL1       -0.2745
     32 C         142.0187  139.5903  167.4029 C.3     1  UNL1        0.1183
     33 C         143.0542  142.2801  168.2351 C.3     1  UNL1        0.0323
     34 C         141.7598  141.7688  168.7946 C.ar    1  UNL1       -0.0069
     35 C         140.9831  142.6024  169.7702 C.ar    1  UNL1       -0.0015
     36 C         139.6887  142.0912  170.3297 C.ar    1  UNL1        0.0203
     37 C         139.1709  140.7463  169.9136 C.ar    1  UNL1        0.0985
     38 N         139.9476  139.9126  168.9380 N.ar    1  UNL1       -0.2471
     39 C         141.2420  140.4239  168.3785 C.ar    1  UNL1        0.0712
@<TRIPOS>BOND
     1    33    34    1
     2    34    35   ar
     3    35    36   ar
     4    36    37   ar
     5    37    38   ar
     6    38    39   ar
     7    39    32    1
     8    32     1    1
     9     1     2    1
    10     2     3    1
    11     3     4    1
    12     4     5    1
    13     5     6    1
    14     4     7    1
    15     7     8    2
    16     7     9   am
    17     9    21    1
    18    21    22   ar
    19    22    23   ar
    20    23    24   ar
    21    24    27    1
    22    27    28    1
    23    28    29    1
    24    29    30    1
    25    30    31    2
    26    24    25   ar
    27    25    26   ar
    28     9    10   am
    29    10    11    2
    30    10    12   am
    31    12    13    1
    32    13    14   ar
    33    14    15   ar
    34    15    16    1
    35    15    17   ar
    36    17    18   ar
    37    18    19   ar
    38    39    34   ar
    39     6     1    1
    40    26    21   ar
    41    19    13   ar
    42    12     4    1
    43    30    27   am
    44    16    20    1
@<TRIPOS>MOLECULE
*****
 39 44 0 0 0
SMALL
GASTEIGER

@<TRIPOS>ATOM
      1 N         141.8602  139.2992  163.7013 N.3     1  UNL1       -0.2676
      2 C         141.3703  140.7063  163.5277 C.3     1  UNL1        0.0746
      3 C         141.8354  141.5235  162.3590 C.3     1  UNL1        0.0449
      4 C         142.7904  140.9336  161.3640 C.3     1  UNL1        0.1391
      5 C         143.2802  139.5266  161.5376 C.3     1  UNL1        0.0449
      6 C         142.8151  138.7094  162.7062 C.3     1  UNL1        0.0746
      7 C         143.7386  140.4813  160.2934 C.2     1  UNL1        0.2529
      8 O         144.3882  139.1322  160.2035 O.2     1  UNL1       -0.2724
      9 N         143.9232  141.6148  159.3284 N.am    1  UNL1       -0.1907
     10 C         143.0890  142.7678  159.8027 C.2     1  UNL1        0.3219
     11 O         142.9749  144.1065  159.1360 O.2     1  UNL1       -0.2512
     12 N         142.3889  142.3468  161.0607 N.am    1  UNL1       -0.2222
     13 C         141.4518  143.1907  161.8729 C.ar    1  UNL1        0.1453
     14 C         139.9815  143.1767  161.5763 C.ar    1  UNL1        0.0922
     15 C         139.0445  144.0206  162.3886 C.ar    1  UNL1        0.2259
     16 O         137.5742  144.0067  162.0919 O.3     1  UNL1       -0.4919
     17 N         139.5778  144.8786  163.4975 N.ar    1  UNL1       -0.1894
     18 C         141.0481  144.8926  163.7941 C.ar    1  UNL1        0.2027
     19 N         141.9851  144.0486  162.9818 N.ar    1  UNL1       -0.2084
     20 H         137.2411  143.4708  161.3993 H       1  UNL1        0.2938
     21 C         144.7898  141.5983  158.1042 C.ar    1  UNL1        0.0623
     22 C         144.4826  140.6534  156.9806 C.ar    1  UNL1        0.0166
     23 C         145.3492  140.6369  155.7564 C.ar    1  UNL1        0.0162
     24 C         146.5229  141.5653  155.6557 C.ar    1  UNL1        0.0539
     25 C         146.8301  142.5103  156.7794 C.ar    1  UNL1        0.0162
     26 C         145.9635  142.5268  158.0036 C.ar    1  UNL1        0.0166
     27 N         147.3895  141.5488  154.4315 N.am    1  UNL1       -0.2581
     28 C         147.1449  141.3825  152.9610 C.3     1  UNL1        0.1078
     29 C         148.6151  141.5255  152.7002 C.3     1  UNL1        0.1074
     30 C         148.8598  141.6918  154.1707 C.2     1  UNL1        0.2311
     31 O         150.0724  141.9104  155.0262 O.2     1  UNL1       -0.2745
     32 C         141.3951  138.4819  164.8700 C.3     1  UNL1        0.1183
     33 C         138.6304  139.2293  165.7633 C.3     1  UNL1        0.0323
     34 C         139.8064  139.5064  166.6523 C.ar    1  UNL1       -0.0069
     35 C         139.6000  140.1571  167.9879 C.ar    1  UNL1       -0.0015
     36 C         140.7760  140.4342  168.8769 C.ar    1  UNL1        0.0203
     37 C         142.1583  140.0606  168.4303 C.ar    1  UNL1        0.0985
     38 N         142.3647  139.4098  167.0946 N.ar    1  UNL1       -0.2471
     39 C         141.1887  139.1327  166.2056 C.ar    1  UNL1        0.0712
@<TRIPOS>BOND
     1    33    34    1
     2    34    35   ar
     3    35    36   ar
     4    36    37   ar
     5    37    38   ar
     6    38    39   ar
     7    39    32    1
     8    32     1    1
     9     1     2    1
    10     2     3    1
    11     3     4    1
    12     4     5    1
    13     5     6    1
    14     4     7    1
    15     7     8    2
    16     7     9   am
    17     9    21    1
    18    21    22   ar
    19    22    23   ar
    20    23    24   ar
    21    24    27    1
    22    27    28    1
    23    28    29    1
    24    29    30    1
    25    30    31    2
    26    24    25   ar
    27    25    26   ar
    28     9    10   am
    29    10    11    2
    30    10    12   am
    31    12    13    1
    32    13    14   ar
    33    14    15   ar
    34    15    16    1
    35    15    17   ar
    36    17    18   ar
    37    18    19   ar
    38    39    34   ar
    39     6     1    1
    40    26    21   ar
    41    19    13   ar
    42    12     4    1
    43    30    27   am
    44    16    20    1
@<TRIPOS>MOLECULE
*****
 39 44 0 0 0
SMALL
GASTEIGER

@<TRIPOS>ATOM
      1 N         142.4744  140.4984  165.6509 N.3     1  UNL1       -0.2676
      2 C         141.3365  141.2789  165.0627 C.3     1  UNL1        0.0746
      3 C         141.3953  141.7286  163.6330 C.3     1  UNL1        0.0449
      4 C         142.5921  141.3978  162.7914 C.3     1  UNL1        0.1391
      5 C         143.7300  140.6173  163.3795 C.3     1  UNL1        0.0449
      6 C         143.6711  140.1676  164.8092 C.3     1  UNL1        0.0746
      7 C         143.7172  141.1431  161.8326 C.2     1  UNL1        0.2529
      8 O         144.9810  140.3940  162.1352 O.2     1  UNL1       -0.2724
      9 N         143.3566  141.7691  160.5179 N.am    1  UNL1       -0.1907
     10 C         142.0086  142.4108  160.6643 C.2     1  UNL1        0.3219
     11 O         141.2640  143.1517  159.5936 O.2     1  UNL1       -0.2512
     12 N         141.5361  142.1813  162.0693 N.am    1  UNL1       -0.2222
     13 C         140.2360  142.6525  162.6503 C.ar    1  UNL1        0.1453
     14 C         139.0385  141.7492  162.6396 C.ar    1  UNL1        0.0922
     15 C         137.7384  142.2205  163.2206 C.ar    1  UNL1        0.2259
     16 O         136.5409  141.3173  163.2098 O.3     1  UNL1       -0.4919
     17 N         137.6358  143.5950  163.8125 N.ar    1  UNL1       -0.1894
     18 C         138.8333  144.4982  163.8233 C.ar    1  UNL1        0.2027
     19 N         140.1334  144.0270  163.2422 N.ar    1  UNL1       -0.2084
     20 H         136.6050  140.4587  162.8401 H       1  UNL1        0.2938
     21 C         144.1965  141.7559  159.2752 C.ar    1  UNL1        0.0623
     22 C         145.2760  142.7804  159.0886 C.ar    1  UNL1        0.0166
     23 C         146.1159  142.7671  157.8459 C.ar    1  UNL1        0.0162
     24 C         145.8763  141.7293  156.7897 C.ar    1  UNL1        0.0539
     25 C         144.7967  140.7047  156.9763 C.ar    1  UNL1        0.0162
     26 C         143.9568  140.7180  158.2191 C.ar    1  UNL1        0.0166
     27 N         146.7162  141.7161  155.5470 N.am    1  UNL1       -0.2581
     28 C         148.1887  141.7325  155.2618 C.3     1  UNL1        0.1078
     29 C         147.9040  141.6973  153.7896 C.3     1  UNL1        0.1074
     30 C         146.4314  141.6809  154.0747 C.2     1  UNL1        0.2311
     31 O         145.1888  141.6444  153.2353 O.2     1  UNL1       -0.2745
     32 C         142.4156  140.0486  167.0807 C.3     1  UNL1        0.1183
     33 C         139.5886  139.9723  168.0820 C.3     1  UNL1        0.0323
     34 C         140.5590  140.9650  168.6502 C.ar    1  UNL1       -0.0069
     35 C         140.1159  141.9195  169.7191 C.ar    1  UNL1       -0.0015
     36 C         141.0863  142.9122  170.2873 C.ar    1  UNL1        0.0203
     37 C         142.4997  142.9504  169.7867 C.ar    1  UNL1        0.0985
     38 N         142.9429  141.9959  168.7178 N.ar    1  UNL1       -0.2471
     39 C         141.9725  141.0031  168.1496 C.ar    1  UNL1        0.0712
@<TRIPOS>BOND
     1    33    34    1
     2    34    35   ar
     3    35    36   ar
     4    36    37   ar
     5    37    38   ar
     6    38    39   ar
     7    39    32    1
     8    32     1    1
     9     1     2    1
    10     2     3    1
    11     3     4    1
    12     4     5    1
    13     5     6    1
    14     4     7    1
    15     7     8    2
    16     7     9   am
    17     9    21    1
    18    21    22   ar
    19    22    23   ar
    20    23    24   ar
    21    24    27    1
    22    27    28    1
    23    28    29    1
    24    29    30    1
    25    30    31    2
    26    24    25   ar
    27    25    26   ar
    28     9    10   am
    29    10    11    2
    30    10    12   am
    31    12    13    1
    32    13    14   ar
    33    14    15   ar
    34    15    16    1
    35    15    17   ar
    36    17    18   ar
    37    18    19   ar
    38    39    34   ar
    39     6     1    1
    40    26    21   ar
    41    19    13   ar
    42    12     4    1
    43    30    27   am
    44    16    20    1
@<TRIPOS>MOLECULE
*****
 39 44 0 0 0
SMALL
GASTEIGER

@<TRIPOS>ATOM
      1 N         141.2963  145.0148  158.3741 N.3     1  UNL1       -0.2676
      2 C         142.3723  144.0332  158.0157 C.3     1  UNL1        0.0746
      3 C         142.9747  143.1604  159.0764 C.3     1  UNL1        0.0449
      4 C         142.5012  143.2691  160.4955 C.3     1  UNL1        0.1391
      5 C         141.4252  144.2508  160.8540 C.3     1  UNL1        0.0449
      6 C         140.8227  145.1236  159.7933 C.3     1  UNL1        0.0746
      7 C         142.1315  143.2654  161.9493 C.2     1  UNL1        0.2529
      8 O         141.0945  144.1339  162.5976 O.2     1  UNL1       -0.2724
      9 N         142.9811  142.2407  162.6410 N.am    1  UNL1       -0.1907
     10 C         143.8757  141.6111  161.6147 C.2     1  UNL1        0.3219
     11 O         144.8890  140.5349  161.8695 O.2     1  UNL1       -0.2512
     12 N         143.5792  142.2467  160.2887 N.am    1  UNL1       -0.2222
     13 C         144.2438  141.9177  158.9849 C.ar    1  UNL1        0.1453
     14 C         145.4293  142.7137  158.5255 C.ar    1  UNL1        0.0922
     15 C         146.0939  142.3846  157.2217 C.ar    1  UNL1        0.2259
     16 O         147.2793  143.1805  156.7622 O.3     1  UNL1       -0.4919
     17 N         145.5730  141.2596  156.3772 N.ar    1  UNL1       -0.1894
     18 C         144.3875  140.4636  156.8366 C.ar    1  UNL1        0.2027
     19 N         143.7230  140.7927  158.1404 N.ar    1  UNL1       -0.2084
     20 H         147.6047  143.8833  157.2897 H       1  UNL1        0.2938
     21 C         142.9426  141.9045  164.1023 C.ar    1  UNL1        0.0623
     22 C         143.4646  142.8841  165.1112 C.ar    1  UNL1        0.0166
     23 C         143.4262  142.5480  166.5725 C.ar    1  UNL1        0.0162
     24 C         142.8658  141.2323  167.0250 C.ar    1  UNL1        0.0539
     25 C         142.3437  140.2527  166.0161 C.ar    1  UNL1        0.0162
     26 C         142.3822  140.5888  164.5548 C.ar    1  UNL1        0.0166
     27 N         142.8273  140.8962  168.4863 N.am    1  UNL1       -0.2581
     28 C         142.3096  139.7451  169.2967 C.3     1  UNL1        0.1078
     29 C         142.7730  140.4209  170.5530 C.3     1  UNL1        0.1074
     30 C         143.2908  141.5721  169.7427 C.2     1  UNL1        0.2311
     31 O         143.9847  142.8640  170.0581 O.2     1  UNL1       -0.2745
     32 C         140.6937  145.8878  157.3134 C.3     1  UNL1        0.1183
     33 C         139.2873  147.7337  155.4122 C.3     1  UNL1        0.0323
     34 C         138.8415  146.3072  155.5404 C.ar    1  UNL1       -0.0069
     35 C         137.6926  145.8037  154.7181 C.ar    1  UNL1       -0.0015
     36 C         137.2468  144.3772  154.8463 C.ar    1  UNL1        0.0203
     37 C         137.9499  143.4543  155.7969 C.ar    1  UNL1        0.0985
     38 N         139.0990  143.9578  156.6193 N.ar    1  UNL1       -0.2471
     39 C         139.5448  145.3842  156.4911 C.ar    1  UNL1        0.0712
@<TRIPOS>BOND
     1    33    34    1
     2    34    35   ar
     3    35    36   ar
     4    36    37   ar
     5    37    38   ar
     6    38    39   ar
     7    39    32    1
     8    32     1    1
     9     1     2    1
    10     2     3    1
    11     3     4    1
    12     4     5    1
    13     5     6    1
    14     4     7    1
    15     7     8    2
    16     7     9   am
    17     9    21    1
    18    21    22   ar
    19    22    23   ar
    20    23    24   ar
    21    24    27    1
    22    27    28    1
    23    28    29    1
    24    29    30    1
    25    30    31    2
    26    24    25   ar
    27    25    26   ar
    28     9    10   am
    29    10    11    2
    30    10    12   am
    31    12    13    1
    32    13    14   ar
    33    14    15   ar
    34    15    16    1
    35    15    17   ar
    36    17    18   ar
    37    18    19   ar
    38    39    34   ar
    39     6     1    1
    40    26    21   ar
    41    19    13   ar
    42    12     4    1
    43    30    27   am
    44    16    20    1
@<TRIPOS>MOLECULE
*****
 39 44 0 0 0
SMALL
GASTEIGER

@<TRIPOS>ATOM
      1 N         142.3365  137.9657  158.1341 N.3     1  UNL1       -0.2676
      2 C         141.2991  139.0313  157.9385 C.3     1  UNL1        0.0746
      3 C         140.6661  139.6891  159.1287 C.3     1  UNL1        0.0449
      4 C         141.0705  139.2813  160.5144 C.3     1  UNL1        0.1391
      5 C         142.1078  138.2157  160.7099 C.3     1  UNL1        0.0449
      6 C         142.7409  137.5579  159.5198 C.3     1  UNL1        0.0746
      7 C         141.3718  138.9797  161.9526 C.2     1  UNL1        0.2529
      8 O         142.3590  137.9674  162.4530 O.2     1  UNL1       -0.2724
      9 N         140.5125  139.8682  162.8025 N.am    1  UNL1       -0.1907
     10 C         139.6801  140.7190  161.8895 C.2     1  UNL1        0.3219
     11 O         138.6787  141.7511  162.3157 O.2     1  UNL1       -0.2512
     12 N         140.0249  140.3562  160.4755 N.am    1  UNL1       -0.2222
     13 C         139.4289  140.9620  159.2394 C.ar    1  UNL1        0.1453
     14 C         138.1526  140.4120  158.6751 C.ar    1  UNL1        0.0922
     15 C         137.5567  141.0179  157.4391 C.ar    1  UNL1        0.2259
     16 O         136.2803  140.4679  156.8747 O.3     1  UNL1       -0.4919
     17 N         138.2371  142.1737  156.7673 N.ar    1  UNL1       -0.1894
     18 C         139.5134  142.7236  157.3316 C.ar    1  UNL1        0.2027
     19 N         140.1093  142.1178  158.5676 N.ar    1  UNL1       -0.2084
     20 H         135.8553  139.7460  157.2944 H       1  UNL1        0.2938
     21 C         140.4896  139.9004  164.3019 C.ar    1  UNL1        0.0623
     22 C         141.7234  140.2859  165.0627 C.ar    1  UNL1        0.0166
     23 C         141.7005  140.3181  166.5622 C.ar    1  UNL1        0.0162
     24 C         140.4438  139.9647  167.3009 C.ar    1  UNL1        0.0539
     25 C         139.2099  139.5791  166.5400 C.ar    1  UNL1        0.0162
     26 C         139.2328  139.5470  165.0406 C.ar    1  UNL1        0.0166
     27 N         140.4209  139.9968  168.8003 N.am    1  UNL1       -0.2581
     28 C         139.4311  140.4394  169.8368 C.3     1  UNL1        0.1078
     29 C         140.3886  140.0423  170.9209 C.3     1  UNL1        0.1074
     30 C         141.3785  139.5996  169.8845 C.2     1  UNL1        0.2311
     31 O         142.7556  139.0058  169.9182 O.2     1  UNL1       -0.2745
     32 C         142.9696  137.3079  156.9439 C.3     1  UNL1        0.1183
     33 C         140.9591  136.5503  154.8500 C.3     1  UNL1        0.0323
     34 C         141.6926  135.4828  155.6065 C.ar    1  UNL1       -0.0069
     35 C         141.4209  134.0365  155.3161 C.ar    1  UNL1       -0.0015
     36 C         142.1544  132.9689  156.0727 C.ar    1  UNL1        0.0203
     37 C         143.1596  133.3477  157.1196 C.ar    1  UNL1        0.0985
     38 N         143.4313  134.7940  157.4100 N.ar    1  UNL1       -0.2471
     39 C         142.6979  135.8616  156.6535 C.ar    1  UNL1        0.0712
@<TRIPOS>BOND
     1    33    34    1
     2    34    35   ar
     3    35    36   ar
     4    36    37   ar
     5    37    38   ar
     6    38    39   ar
     7    39    32    1
     8    32     1    1
     9     1     2    1
    10     2     3    1
    11     3     4    1
    12     4     5    1
    13     5     6    1
    14     4     7    1
    15     7     8    2
    16     7     9   am
    17     9    21    1
    18    21    22   ar
    19    22    23   ar
    20    23    24   ar
    21    24    27    1
    22    27    28    1
    23    28    29    1
    24    29    30    1
    25    30    31    2
    26    24    25   ar
    27    25    26   ar
    28     9    10   am
    29    10    11    2
    30    10    12   am
    31    12    13    1
    32    13    14   ar
    33    14    15   ar
    34    15    16    1
    35    15    17   ar
    36    17    18   ar
    37    18    19   ar
    38    39    34   ar
    39     6     1    1
    40    26    21   ar
    41    19    13   ar
    42    12     4    1
    43    30    27   am
    44    16    20    1
@<TRIPOS>MOLECULE
*****
 39 44 0 0 0
SMALL
GASTEIGER

@<TRIPOS>ATOM
      1 N         140.1697  142.3179  165.8975 N.3     1  UNL1       -0.2676
      2 C         141.3690  141.6429  165.3009 C.3     1  UNL1        0.0746
      3 C         141.4052  141.3385  163.8326 C.3     1  UNL1        0.0449
      4 C         140.2421  141.7090  162.9609 C.3     1  UNL1        0.1391
      5 C         139.0428  142.3840  163.5575 C.3     1  UNL1        0.0449
      6 C         139.0066  142.6885  165.0258 C.3     1  UNL1        0.0746
      7 C         139.1599  142.0184  161.9693 C.2     1  UNL1        0.2529
      8 O         137.8515  142.6866  162.2720 O.2     1  UNL1       -0.2724
      9 N         139.6158  141.5423  160.6219 N.am    1  UNL1       -0.1907
     10 C         140.9798  140.9386  160.7807 C.2     1  UNL1        0.3219
     11 O         141.8108  140.3375  159.6862 O.2     1  UNL1       -0.2512
     12 N         141.3669  141.0416  162.2263 N.am    1  UNL1       -0.2222
     13 C         142.6528  140.5616  162.8311 C.ar    1  UNL1        0.1453
     14 C         143.8921  141.3996  162.7214 C.ar    1  UNL1        0.0922
     15 C         145.1780  140.9195  163.3263 C.ar    1  UNL1        0.2259
     16 O         146.4173  141.7575  163.2166 O.3     1  UNL1       -0.4919
     17 N         145.2248  139.6014  164.0408 N.ar    1  UNL1       -0.1894
     18 C         143.9855  138.7635  164.1505 C.ar    1  UNL1        0.2027
     19 N         142.6996  139.2435  163.5456 N.ar    1  UNL1       -0.2084
     20 H         146.3881  142.5808  162.7703 H       1  UNL1        0.2938
     21 C         138.8434  141.6508  159.3406 C.ar    1  UNL1        0.0623
     22 C         138.9591  142.8859  158.4975 C.ar    1  UNL1        0.0166
     23 C         138.1867  142.9944  157.2163 C.ar    1  UNL1        0.0162
     24 C         137.2986  141.8678  156.7782 C.ar    1  UNL1        0.0539
     25 C         137.1830  140.6326  157.6213 C.ar    1  UNL1        0.0162
     26 C         137.9554  140.5241  158.9026 C.ar    1  UNL1        0.0166
     27 N         136.5262  141.9763  155.4969 N.am    1  UNL1       -0.2581
     28 C         136.7932  142.5670  154.1443 C.3     1  UNL1        0.1078
     29 C         135.4339  142.1297  153.6850 C.3     1  UNL1        0.1074
     30 C         135.1668  141.5390  155.0377 C.2     1  UNL1        0.2311
     31 O         134.0168  140.8121  155.6694 O.2     1  UNL1       -0.2745
     32 C         140.1335  142.6225  167.3659 C.3     1  UNL1        0.1183
     33 C         139.3589  139.9082  168.3823 C.3     1  UNL1        0.0323
     34 C         140.6535  140.5298  168.8152 C.ar    1  UNL1       -0.0069
     35 C         141.5609  139.7944  169.7563 C.ar    1  UNL1       -0.0015
     36 C         142.8556  140.4159  170.1892 C.ar    1  UNL1        0.0203
     37 C         143.2429  141.7730  169.6810 C.ar    1  UNL1        0.0985
     38 N         142.3355  142.5086  168.7398 N.ar    1  UNL1       -0.2471
     39 C         141.0408  141.8870  168.3069 C.ar    1  UNL1        0.0712
@<TRIPOS>BOND
     1    33    34    1
     2    34    35   ar
     3    35    36   ar
     4    36    37   ar
     5    37    38   ar
     6    38    39   ar
     7    39    32    1
     8    32     1    1
     9     1     2    1
    10     2     3    1
    11     3     4    1
    12     4     5    1
    13     5     6    1
    14     4     7    1
    15     7     8    2
    16     7     9   am
    17     9    21    1
    18    21    22   ar
    19    22    23   ar
    20    23    24   ar
    21    24    27    1
    22    27    28    1
    23    28    29    1
    24    29    30    1
    25    30    31    2
    26    24    25   ar
    27    25    26   ar
    28     9    10   am
    29    10    11    2
    30    10    12   am
    31    12    13    1
    32    13    14   ar
    33    14    15   ar
    34    15    16    1
    35    15    17   ar
    36    17    18   ar
    37    18    19   ar
    38    39    34   ar
    39     6     1    1
    40    26    21   ar
    41    19    13   ar
    42    12     4    1
    43    30    27   am
    44    16    20    1
@<TRIPOS>MOLECULE
*****
 39 44 0 0 0
SMALL
GASTEIGER

@<TRIPOS>ATOM
      1 N         139.4099  140.5720  163.5361 N.3     1  UNL1       -0.2676
      2 C         140.7879  141.1211  163.3131 C.3     1  UNL1        0.0746
      3 C         141.5847  140.6854  162.1193 C.3     1  UNL1        0.0449
      4 C         141.0035  139.7006  161.1485 C.3     1  UNL1        0.1391
      5 C         139.6256  139.1515  161.3715 C.3     1  UNL1        0.0449
      6 C         138.8288  139.5872  162.5653 C.3     1  UNL1        0.0746
      7 C         140.5568  138.7281  160.0974 C.2     1  UNL1        0.2529
      8 O         139.2349  138.0205  160.0557 O.2     1  UNL1       -0.2724
      9 N         141.6642  138.5873  159.0954 N.am    1  UNL1       -0.1907
     10 C         142.7953  139.4729  159.5272 C.2     1  UNL1        0.3219
     11 O         144.1048  139.6410  158.8152 O.2     1  UNL1       -0.2512
     12 N         142.3870  140.1609  160.7960 N.am    1  UNL1       -0.2222
     13 C         143.2164  141.1378  161.5756 C.ar    1  UNL1        0.1453
     14 C         142.9342  142.6077  161.4773 C.ar    1  UNL1        0.0922
     15 C         143.7637  143.5845  162.2569 C.ar    1  UNL1        0.2259
     16 O         143.4814  145.0544  162.1585 O.3     1  UNL1       -0.4919
     17 N         144.8755  143.0914  163.1349 N.ar    1  UNL1       -0.1894
     18 C         145.1577  141.6215  163.2332 C.ar    1  UNL1        0.2027
     19 N         144.3283  140.6447  162.4536 N.ar    1  UNL1       -0.2084
     20 H         142.7869  145.3624  161.6101 H       1  UNL1        0.2938
     21 C         141.6440  137.7144  157.8758 C.ar    1  UNL1        0.0623
     22 C         142.7793  136.7707  157.6101 C.ar    1  UNL1        0.0166
     23 C         142.7591  135.8978  156.3905 C.ar    1  UNL1        0.0162
     24 C         141.6037  135.9684  155.4366 C.ar    1  UNL1        0.0539
     25 C         140.4684  136.9120  155.7023 C.ar    1  UNL1        0.0162
     26 C         140.4886  137.7850  156.9220 C.ar    1  UNL1        0.0166
     27 N         141.5835  135.0954  154.2170 N.am    1  UNL1       -0.2581
     28 C         141.7541  135.3258  152.7447 C.3     1  UNL1        0.1078
     29 C         141.5550  133.8608  152.4922 C.3     1  UNL1        0.1074
     30 C         141.3843  133.6302  153.9646 C.2     1  UNL1        0.2311
     31 O         141.1229  132.4312  154.8271 O.2     1  UNL1       -0.2745
     32 C         138.6130  141.0077  164.7300 C.3     1  UNL1        0.1183
     33 C         138.1276  138.7361  166.6285 C.3     1  UNL1        0.0323
     34 C         139.0025  139.8831  167.0395 C.ar    1  UNL1       -0.0069
     35 C         139.6346  139.8943  168.3997 C.ar    1  UNL1       -0.0015
     36 C         140.5095  141.0413  168.8107 C.ar    1  UNL1        0.0203
     37 C         140.7523  142.1771  167.8615 C.ar    1  UNL1        0.0985
     38 N         140.1201  142.1659  166.5012 N.ar    1  UNL1       -0.2471
     39 C         139.2452  141.0189  166.0902 C.ar    1  UNL1        0.0712
@<TRIPOS>BOND
     1    33    34    1
     2    34    35   ar
     3    35    36   ar
     4    36    37   ar
     5    37    38   ar
     6    38    39   ar
     7    39    32    1
     8    32     1    1
     9     1     2    1
    10     2     3    1
    11     3     4    1
    12     4     5    1
    13     5     6    1
    14     4     7    1
    15     7     8    2
    16     7     9   am
    17     9    21    1
    18    21    22   ar
    19    22    23   ar
    20    23    24   ar
    21    24    27    1
    22    27    28    1
    23    28    29    1
    24    29    30    1
    25    30    31    2
    26    24    25   ar
    27    25    26   ar
    28     9    10   am
    29    10    11    2
    30    10    12   am
    31    12    13    1
    32    13    14   ar
    33    14    15   ar
    34    15    16    1
    35    15    17   ar
    36    17    18   ar
    37    18    19   ar
    38    39    34   ar
    39     6     1    1
    40    26    21   ar
    41    19    13   ar
    42    12     4    1
    43    30    27   am
    44    16    20    1
