@<TRIPOS>MOLECULE
*****
 31 33 0 0 0
SMALL
GASTEIGER

@<TRIPOS>ATOM
      1 C         141.8598  140.7153  164.5080 C.ar    1  UNL1        0.0401
      2 C         142.5942  141.9934  164.7859 C.ar    1  UNL1        0.0120
      3 C         142.5926  143.0956  163.7685 C.ar    1  UNL1        0.0645
      4 I         143.3270  144.3737  164.0463 I       1  UNL1       -0.0394
      5 C         141.8567  142.9198  162.4733 C.ar    1  UNL1        0.1491
      6 C         141.1223  141.6417  162.1955 C.ar    1  UNL1        0.0645
      7 I         140.3863  141.4659  160.9003 I       1  UNL1       -0.0394
      8 C         141.1239  140.5395  163.2129 C.ar    1  UNL1        0.0120
      9 C         141.8614  139.6130  165.5255 C.2     1  UNL1        0.1983
     10 O         142.7360  138.4107  165.3272 O.2     1  UNL1       -0.2865
     11 C         139.5146  139.4382  166.7932 C.ar    1  UNL1        0.1258
     12 O         139.0512  139.6609  168.2024 O.2     1  UNL1       -0.4577
     13 C         140.2384  140.0736  169.0210 C.ar    1  UNL1        0.1449
     14 C         140.3839  140.4242  170.4722 C.ar    1  UNL1        0.0375
     15 C         141.7267  140.8070  171.0202 C.ar    1  UNL1        0.0031
     16 C         142.9239  140.8393  170.1171 C.ar    1  UNL1        0.0002
     17 C         142.7784  140.4887  168.6659 C.ar    1  UNL1        0.0032
     18 C         141.4356  140.1059  168.1179 C.ar    1  UNL1        0.0403
     19 C         140.9883  139.7132  166.7411 C.ar    1  UNL1        0.0722
     20 C         138.6553  139.0147  165.6390 C.3     1  UNL1        0.0646
     21 C         138.8213  137.6488  165.0418 C.3     1  UNL1        0.0080
     22 C         138.4498  138.0623  162.5038 C.3     1  UNL1        0.0000
     23 C         139.2794  137.5021  163.6210 C.3     1  UNL1        0.0005
     24 O         141.8552  144.0220  161.4560 O.3     1  UNL1       -0.4731
     25 C         140.6290  144.8647  161.2650 C.3     1  UNL1        0.2227
     26 C         139.9596  145.4945  162.4505 C.3     1  UNL1        0.1200
     27 N         139.0893  144.6659  163.3483 N.3     1  UNL1       -0.2696
     28 C         139.3948  144.5757  164.8142 C.3     1  UNL1        0.0722
     29 C         138.4089  145.0937  165.8190 C.3     1  UNL1        0.0188
     30 C         137.9136  143.9275  162.7803 C.3     1  UNL1        0.0722
     31 C         137.5420  142.5791  163.3220 C.3     1  UNL1        0.0188
@<TRIPOS>BOND
     1    22    23    1
     2    23    21    1
     3    21    20    1
     4    20    11    1
     5    11    12   ar
     6    12    13   ar
     7    13    14   ar
     8    14    15   ar
     9    15    16   ar
    10    16    17   ar
    11    17    18   ar
    12    18    19   ar
    13    19     9    1
    14     9    10    2
    15     9     1    1
    16     1     2   ar
    17     2     3   ar
    18     3     4    1
    19     3     5   ar
    20     5    24    1
    21    24    25    1
    22    25    26    1
    23    26    27    1
    24    27    28    1
    25    28    29    1
    26    27    30    1
    27    30    31    1
    28     5     6   ar
    29     6     7    1
    30     6     8   ar
    31    19    11   ar
    32     8     1   ar
    33    18    13   ar
@<TRIPOS>MOLECULE
*****
 31 33 0 0 0
SMALL
GASTEIGER

@<TRIPOS>ATOM
      1 C         139.4847  140.7133  164.4152 C.ar    1  UNL1        0.0401
      2 C         139.3251  140.6736  162.9242 C.ar    1  UNL1        0.0120
      3 C         138.9862  141.9266  162.1726 C.ar    1  UNL1        0.0645
      4 I         138.8266  141.8869  160.6817 I       1  UNL1       -0.0394
      5 C         138.8068  143.2194  162.9120 C.ar    1  UNL1        0.1491
      6 C         138.9664  143.2591  164.4029 C.ar    1  UNL1        0.0645
      7 I         138.7871  144.5519  165.1422 I       1  UNL1       -0.0394
      8 C         139.3053  142.0060  165.1545 C.ar    1  UNL1        0.0120
      9 C         139.8236  139.4601  165.1668 C.2     1  UNL1        0.1983
     10 O         139.1618  138.1645  164.8019 O.2     1  UNL1       -0.2865
     11 C         142.2998  139.2655  166.1545 C.ar    1  UNL1        0.1258
     12 O         142.9126  139.4063  167.5163 O.2     1  UNL1       -0.4577
     13 C         141.8159  139.7305  168.4869 C.ar    1  UNL1        0.1449
     14 C         141.8257  139.9791  169.9661 C.ar    1  UNL1        0.0375
     15 C         140.5449  140.2874  170.6833 C.ar    1  UNL1        0.0031
     16 C         139.2542  140.3470  169.9213 C.ar    1  UNL1        0.0002
     17 C         139.2444  140.0984  168.4421 C.ar    1  UNL1        0.0032
     18 C         140.5252  139.7901  167.7249 C.ar    1  UNL1        0.0403
     19 C         140.8243  139.5028  166.2834 C.ar    1  UNL1        0.0722
     20 C         143.0337  138.9440  164.8864 C.3     1  UNL1        0.0646
     21 C         144.4139  139.4861  164.6605 C.3     1  UNL1        0.0080
     22 C         145.7481  141.5029  163.7106 C.3     1  UNL1        0.0000
     23 C         144.6587  140.4820  163.5658 C.3     1  UNL1        0.0005
     24 O         138.4679  144.4724  162.1603 O.3     1  UNL1       -0.4731
     25 C         139.5201  145.5163  161.9294 C.3     1  UNL1        0.2227
     26 C         140.8660  145.1201  161.3986 C.3     1  UNL1        0.1200
     27 N         141.8772  144.4925  162.3116 N.3     1  UNL1       -0.2696
     28 C         142.4618  143.1526  161.9752 C.3     1  UNL1        0.0722
     29 C         143.4841  143.0329  160.8841 C.3     1  UNL1        0.0188
     30 C         142.3039  145.2047  163.5609 C.3     1  UNL1        0.0722
     31 C         143.7199  145.0913  164.0424 C.3     1  UNL1        0.0188
@<TRIPOS>BOND
     1    22    23    1
     2    23    21    1
     3    21    20    1
     4    20    11    1
     5    11    12   ar
     6    12    13   ar
     7    13    14   ar
     8    14    15   ar
     9    15    16   ar
    10    16    17   ar
    11    17    18   ar
    12    18    19   ar
    13    19     9    1
    14     9    10    2
    15     9     1    1
    16     1     2   ar
    17     2     3   ar
    18     3     4    1
    19     3     5   ar
    20     5    24    1
    21    24    25    1
    22    25    26    1
    23    26    27    1
    24    27    28    1
    25    28    29    1
    26    27    30    1
    27    30    31    1
    28     5     6   ar
    29     6     7    1
    30     6     8   ar
    31    19    11   ar
    32     8     1   ar
    33    18    13   ar
@<TRIPOS>MOLECULE
*****
 31 33 0 0 0
SMALL
GASTEIGER

@<TRIPOS>ATOM
      1 C         141.0105  141.7518  164.9069 C.ar    1  UNL1        0.0401
      2 C         139.6434  142.2016  164.4840 C.ar    1  UNL1        0.0120
      3 C         139.4712  143.5123  163.7752 C.ar    1  UNL1        0.0645
      4 I         138.1041  143.9622  163.3523 I       1  UNL1       -0.0394
      5 C         140.6658  144.3731  163.4893 C.ar    1  UNL1        0.1491
      6 C         142.0329  143.9233  163.9122 C.ar    1  UNL1        0.0645
      7 I         143.2275  144.7841  163.6264 I       1  UNL1       -0.0394
      8 C         142.2051  142.6126  164.6210 C.ar    1  UNL1        0.0120
      9 C         141.1828  140.4410  165.6157 C.2     1  UNL1        0.1983
     10 O         141.9670  139.3371  164.9707 O.2     1  UNL1       -0.2865
     11 C         139.2264  139.6297  167.2464 C.ar    1  UNL1        0.1258
     12 O         139.0207  139.6177  168.7322 O.2     1  UNL1       -0.4577
     13 C         140.2380  140.2150  169.3736 C.ar    1  UNL1        0.1449
     14 C         140.5978  140.4611  170.8088 C.ar    1  UNL1        0.0375
     15 C         141.9157  141.0884  171.1546 C.ar    1  UNL1        0.0031
     16 C         142.8738  141.4695  170.0653 C.ar    1  UNL1        0.0002
     17 C         142.5140  141.2234  168.6300 C.ar    1  UNL1        0.0032
     18 C         141.1961  140.5961  168.2842 C.ar    1  UNL1        0.0403
     19 C         140.5709  140.2344  166.9696 C.ar    1  UNL1        0.0722
     20 C         138.2577  139.1254  166.2181 C.3     1  UNL1        0.0646
     21 C         138.5011  137.8098  165.5400 C.3     1  UNL1        0.0080
     22 C         138.6014  138.9072  163.1871 C.3     1  UNL1        0.0000
     23 C         138.9478  137.7752  164.1085 C.3     1  UNL1        0.0005
     24 O         140.4935  145.6838  162.7805 O.3     1  UNL1       -0.4731
     25 C         140.2476  145.7097  161.3011 C.3     1  UNL1        0.2227
     26 C         141.0776  144.8571  160.3877 C.3     1  UNL1        0.1200
     27 N         140.7120  143.4194  160.1658 N.3     1  UNL1       -0.2696
     28 C         139.3991  143.0688  159.5306 C.3     1  UNL1        0.0722
     29 C         139.2080  143.2507  158.0540 C.3     1  UNL1        0.0188
     30 C         141.6593  142.3322  160.5790 C.3     1  UNL1        0.0722
     31 C         141.1360  141.0954  161.2472 C.3     1  UNL1        0.0188
@<TRIPOS>BOND
     1    22    23    1
     2    23    21    1
     3    21    20    1
     4    20    11    1
     5    11    12   ar
     6    12    13   ar
     7    13    14   ar
     8    14    15   ar
     9    15    16   ar
    10    16    17   ar
    11    17    18   ar
    12    18    19   ar
    13    19     9    1
    14     9    10    2
    15     9     1    1
    16     1     2   ar
    17     2     3   ar
    18     3     4    1
    19     3     5   ar
    20     5    24    1
    21    24    25    1
    22    25    26    1
    23    26    27    1
    24    27    28    1
    25    28    29    1
    26    27    30    1
    27    30    31    1
    28     5     6   ar
    29     6     7    1
    30     6     8   ar
    31    19    11   ar
    32     8     1   ar
    33    18    13   ar
@<TRIPOS>MOLECULE
*****
 31 33 0 0 0
SMALL
GASTEIGER

@<TRIPOS>ATOM
      1 C         139.0471  140.6553  165.1121 C.ar    1  UNL1        0.0401
      2 C         139.1625  142.1293  165.3651 C.ar    1  UNL1        0.0120
      3 C         138.9725  143.1008  164.2382 C.ar    1  UNL1        0.0645
      4 I         139.0878  144.5748  164.4912 I       1  UNL1       -0.0394
      5 C         138.6672  142.5984  162.8582 C.ar    1  UNL1        0.1491
      6 C         138.5518  141.1244  162.6052 C.ar    1  UNL1        0.0645
      7 I         138.2465  140.6219  161.2252 I       1  UNL1       -0.0394
      8 C         138.7418  140.1529  163.7321 C.ar    1  UNL1        0.0120
      9 C         139.2371  139.6837  166.2391 C.2     1  UNL1        0.1983
     10 O         138.1235  138.7560  166.6252 O.2     1  UNL1       -0.2865
     11 C         141.8375  139.1027  166.4514 C.ar    1  UNL1        0.1258
     12 O         142.8746  139.2565  167.5242 O.2     1  UNL1       -0.4577
     13 C         142.2186  139.8889  168.7157 C.ar    1  UNL1        0.1449
     14 C         142.7484  140.2795  170.0636 C.ar    1  UNL1        0.0375
     15 C         141.8357  140.9071  171.0750 C.ar    1  UNL1        0.0031
     16 C         140.3933  141.1441  170.7387 C.ar    1  UNL1        0.0002
     17 C         139.8635  140.7535  169.3908 C.ar    1  UNL1        0.0032
     18 C         140.7761  140.1259  168.3794 C.ar    1  UNL1        0.0403
     19 C         140.5407  139.6400  166.9799 C.ar    1  UNL1        0.0722
     20 C         142.0586  138.5148  165.0892 C.3     1  UNL1        0.0646
     21 C         141.2774  137.3096  164.6567 C.3     1  UNL1        0.0080
     22 C         141.6228  137.8599  162.1411 C.3     1  UNL1        0.0000
     23 C         140.8536  137.1646  163.2251 C.3     1  UNL1        0.0005
     24 O         138.4772  143.5699  161.7313 O.3     1  UNL1       -0.4731
     25 C         139.5955  143.8254  160.7648 C.3     1  UNL1        0.2227
     26 C         140.8288  144.5487  161.2187 C.3     1  UNL1        0.1200
     27 N         141.9878  143.7775  161.7769 N.3     1  UNL1       -0.2696
     28 C         143.1263  144.5032  162.4308 C.3     1  UNL1        0.0722
     29 C         142.9566  145.0825  163.8039 C.3     1  UNL1        0.0188
     30 C         142.0086  142.2807  161.6814 C.3     1  UNL1        0.0722
     31 C         142.2330  141.4537  162.9125 C.3     1  UNL1        0.0188
@<TRIPOS>BOND
     1    22    23    1
     2    23    21    1
     3    21    20    1
     4    20    11    1
     5    11    12   ar
     6    12    13   ar
     7    13    14   ar
     8    14    15   ar
     9    15    16   ar
    10    16    17   ar
    11    17    18   ar
    12    18    19   ar
    13    19     9    1
    14     9    10    2
    15     9     1    1
    16     1     2   ar
    17     2     3   ar
    18     3     4    1
    19     3     5   ar
    20     5    24    1
    21    24    25    1
    22    25    26    1
    23    26    27    1
    24    27    28    1
    25    28    29    1
    26    27    30    1
    27    30    31    1
    28     5     6   ar
    29     6     7    1
    30     6     8   ar
    31    19    11   ar
    32     8     1   ar
    33    18    13   ar
@<TRIPOS>MOLECULE
*****
 31 33 0 0 0
SMALL
GASTEIGER

@<TRIPOS>ATOM
      1 C         141.1799  140.9746  163.7566 C.ar    1  UNL1        0.0401
      2 C         141.3080  142.4032  164.1957 C.ar    1  UNL1        0.0120
      3 C         141.7695  143.4480  163.2235 C.ar    1  UNL1        0.0645
      4 I         141.8976  144.8766  163.6626 I       1  UNL1       -0.0394
      5 C         142.1029  143.0644  161.8122 C.ar    1  UNL1        0.1491
      6 C         141.9748  141.6358  161.3731 C.ar    1  UNL1        0.0645
      7 I         142.3082  141.2522  159.9619 I       1  UNL1       -0.0394
      8 C         141.5133  140.5910  162.3454 C.ar    1  UNL1        0.0120
      9 C         140.7184  139.9297  164.7288 C.2     1  UNL1        0.1983
     10 O         139.4558  139.1645  164.4641 O.2     1  UNL1       -0.2865
     11 C         142.9235  139.1236  166.0066 C.ar    1  UNL1        0.1258
     12 O         143.3290  138.9959  167.4450 O.2     1  UNL1       -0.4577
     13 C         142.1756  139.4434  168.2933 C.ar    1  UNL1        0.1449
     14 C         141.9992  139.5350  169.7800 C.ar    1  UNL1        0.0375
     15 C         140.7045  140.0308  170.3525 C.ar    1  UNL1        0.0031
     16 C         139.5861  140.4350  169.4382 C.ar    1  UNL1        0.0002
     17 C         139.7625  140.3434  167.9515 C.ar    1  UNL1        0.0032
     18 C         141.0573  139.8476  167.3790 C.ar    1  UNL1        0.0403
     19 C         141.5195  139.6500  165.9658 C.ar    1  UNL1        0.0722
     20 C         143.7729  138.7845  164.8176 C.3     1  UNL1        0.0646
     21 C         145.0103  139.5813  164.5281 C.3     1  UNL1        0.0080
     22 C         145.2087  142.1253  164.0391 C.3     1  UNL1        0.0000
     23 C         144.9558  140.7263  163.5606 C.3     1  UNL1        0.0005
     24 O         142.5644  144.1093  160.8401 O.3     1  UNL1       -0.4731
     25 C         141.5791  144.7612  159.9158 C.3     1  UNL1        0.2227
     26 C         140.1085  144.6556  160.1917 C.3     1  UNL1        0.1200
     27 N         139.3052  143.5542  159.5661 N.3     1  UNL1       -0.2696
     28 C         139.3071  143.3777  158.0764 C.3     1  UNL1        0.0722
     29 C         138.9536  142.0483  157.4782 C.3     1  UNL1        0.0188
     30 C         138.5000  142.6292  160.4299 C.3     1  UNL1        0.0722
     31 C         138.2705  142.9617  161.8744 C.3     1  UNL1        0.0188
@<TRIPOS>BOND
     1    22    23    1
     2    23    21    1
     3    21    20    1
     4    20    11    1
     5    11    12   ar
     6    12    13   ar
     7    13    14   ar
     8    14    15   ar
     9    15    16   ar
    10    16    17   ar
    11    17    18   ar
    12    18    19   ar
    13    19     9    1
    14     9    10    2
    15     9     1    1
    16     1     2   ar
    17     2     3   ar
    18     3     4    1
    19     3     5   ar
    20     5    24    1
    21    24    25    1
    22    25    26    1
    23    26    27    1
    24    27    28    1
    25    28    29    1
    26    27    30    1
    27    30    31    1
    28     5     6   ar
    29     6     7    1
    30     6     8   ar
    31    19    11   ar
    32     8     1   ar
    33    18    13   ar
@<TRIPOS>MOLECULE
*****
 31 33 0 0 0
SMALL
GASTEIGER

@<TRIPOS>ATOM
      1 C         138.6653  140.3816  165.0128 C.ar    1  UNL1        0.0401
      2 C         138.4151  139.6560  163.7241 C.ar    1  UNL1        0.0120
      3 C         138.0970  140.4284  162.4782 C.ar    1  UNL1        0.0645
      4 I         137.8468  139.7028  161.1894 I       1  UNL1       -0.0394
      5 C         138.0291  141.9262  162.5211 C.ar    1  UNL1        0.1491
      6 C         138.2793  142.6518  163.8098 C.ar    1  UNL1        0.0645
      7 I         138.2114  144.1496  163.8527 I       1  UNL1       -0.0394
      8 C         138.5974  141.8794  165.0557 C.ar    1  UNL1        0.0120
      9 C         138.9835  139.6092  166.2588 C.2     1  UNL1        0.1983
     10 O         137.9600  138.6865  166.8511 O.2     1  UNL1       -0.2865
     11 C         141.6454  139.3724  166.3150 C.ar    1  UNL1        0.1258
     12 O         142.7183  139.6972  167.3116 O.2     1  UNL1       -0.4577
     13 C         142.0613  140.2854  168.5250 C.ar    1  UNL1        0.1449
     14 C         142.6186  140.7908  169.8226 C.ar    1  UNL1        0.0375
     15 C         141.6969  141.3348  170.8736 C.ar    1  UNL1        0.0031
     16 C         140.2179  141.3734  170.6269 C.ar    1  UNL1        0.0002
     17 C         139.6605  140.8680  169.3292 C.ar    1  UNL1        0.0032
     18 C         140.5822  140.3240  168.2783 C.ar    1  UNL1        0.0403
     19 C         140.3252  139.7597  166.9125 C.ar    1  UNL1        0.0722
     20 C         141.8557  138.7665  164.9590 C.3     1  UNL1        0.0646
     21 C         141.3318  137.3928  164.6619 C.3     1  UNL1        0.0080
     22 C         141.3789  137.8640  162.1073 C.3     1  UNL1        0.0000
     23 C         140.9101  137.0363  163.2672 C.3     1  UNL1        0.0005
     24 O         137.7109  142.6985  161.2751 O.3     1  UNL1       -0.4731
     25 C         138.7379  142.8264  160.1893 C.3     1  UNL1        0.2227
     26 C         140.1876  142.9807  160.5424 C.3     1  UNL1        0.1200
     27 N         141.1282  141.8250  160.3715 N.3     1  UNL1       -0.2696
     28 C         142.0960  141.4778  161.4639 C.3     1  UNL1        0.0722
     29 C         141.7473  141.7655  162.8941 C.3     1  UNL1        0.0188
     30 C         141.1013  141.0163  159.1084 C.3     1  UNL1        0.0722
     31 C         141.9976  139.8224  158.9630 C.3     1  UNL1        0.0188
@<TRIPOS>BOND
     1    22    23    1
     2    23    21    1
     3    21    20    1
     4    20    11    1
     5    11    12   ar
     6    12    13   ar
     7    13    14   ar
     8    14    15   ar
     9    15    16   ar
    10    16    17   ar
    11    17    18   ar
    12    18    19   ar
    13    19     9    1
    14     9    10    2
    15     9     1    1
    16     1     2   ar
    17     2     3   ar
    18     3     4    1
    19     3     5   ar
    20     5    24    1
    21    24    25    1
    22    25    26    1
    23    26    27    1
    24    27    28    1
    25    28    29    1
    26    27    30    1
    27    30    31    1
    28     5     6   ar
    29     6     7    1
    30     6     8   ar
    31    19    11   ar
    32     8     1   ar
    33    18    13   ar
@<TRIPOS>MOLECULE
*****
 31 33 0 0 0
SMALL
GASTEIGER

@<TRIPOS>ATOM
      1 C         140.7558  141.4145  164.9175 C.ar    1  UNL1        0.0401
      2 C         139.4327  141.9947  164.5140 C.ar    1  UNL1        0.0120
      3 C         139.3691  143.3625  163.9018 C.ar    1  UNL1        0.0645
      4 I         138.0460  143.9427  163.4983 I       1  UNL1       -0.0394
      5 C         140.6284  144.1502  163.6931 C.ar    1  UNL1        0.1491
      6 C         141.9515  143.5700  164.0966 C.ar    1  UNL1        0.0645
      7 I         143.2109  144.3577  163.8878 I       1  UNL1       -0.0394
      8 C         142.0151  142.2022  164.7088 C.ar    1  UNL1        0.0120
      9 C         140.8195  140.0465  165.5298 C.2     1  UNL1        0.1983
     10 O         140.1675  138.8851  164.8401 O.2     1  UNL1       -0.2865
     11 C         142.8033  139.0631  167.0273 C.ar    1  UNL1        0.1258
     12 O         143.1603  139.1174  168.4832 O.2     1  UNL1       -0.4577
     13 C         142.1130  139.9280  169.1874 C.ar    1  UNL1        0.1449
     14 C         141.9440  140.3170  170.6262 C.ar    1  UNL1        0.0375
     15 C         140.7708  141.1528  171.0443 C.ar    1  UNL1        0.0031
     16 C         139.7664  141.5995  170.0237 C.ar    1  UNL1        0.0002
     17 C         139.9353  141.2105  168.5849 C.ar    1  UNL1        0.0032
     18 C         141.1086  140.3747  168.1668 C.ar    1  UNL1        0.0403
     19 C         141.5353  139.8402  166.8318 C.ar    1  UNL1        0.0722
     20 C         143.5783  138.3559  165.9552 C.3     1  UNL1        0.0646
     21 C         144.4087  139.1442  164.9862 C.3     1  UNL1        0.0080
     22 C         144.5162  140.3425  162.6835 C.3     1  UNL1        0.0000
     23 C         144.0030  139.2265  163.5445 C.3     1  UNL1        0.0005
     24 O         140.5647  145.5181  163.0809 O.3     1  UNL1       -0.4731
     25 C         140.3289  145.6700  161.6073 C.3     1  UNL1        0.2227
     26 C         141.1450  144.8753  160.6312 C.3     1  UNL1        0.1200
     27 N         140.7453  143.4710  160.2878 N.3     1  UNL1       -0.2696
     28 C         141.6855  142.3350  160.5631 C.3     1  UNL1        0.0722
     29 C         141.1746  141.0756  161.1978 C.3     1  UNL1        0.0188
     30 C         139.4056  143.2025  159.6689 C.3     1  UNL1        0.0722
     31 C         139.2766  143.0909  158.1786 C.3     1  UNL1        0.0188
@<TRIPOS>BOND
     1    22    23    1
     2    23    21    1
     3    21    20    1
     4    20    11    1
     5    11    12   ar
     6    12    13   ar
     7    13    14   ar
     8    14    15   ar
     9    15    16   ar
    10    16    17   ar
    11    17    18   ar
    12    18    19   ar
    13    19     9    1
    14     9    10    2
    15     9     1    1
    16     1     2   ar
    17     2     3   ar
    18     3     4    1
    19     3     5   ar
    20     5    24    1
    21    24    25    1
    22    25    26    1
    23    26    27    1
    24    27    28    1
    25    28    29    1
    26    27    30    1
    27    30    31    1
    28     5     6   ar
    29     6     7    1
    30     6     8   ar
    31    19    11   ar
    32     8     1   ar
    33    18    13   ar
@<TRIPOS>MOLECULE
*****
 31 33 0 0 0
SMALL
GASTEIGER

@<TRIPOS>ATOM
      1 C         141.0202  141.8203  164.9040 C.ar    1  UNL1        0.0401
      2 C         141.8300  140.5987  164.5843 C.ar    1  UNL1        0.0120
      3 C         143.1453  140.7350  163.8765 C.ar    1  UNL1        0.0645
      4 I         143.9551  139.5135  163.5568 I       1  UNL1       -0.0394
      5 C         143.6511  142.0928  163.4883 C.ar    1  UNL1        0.1491
      6 C         142.8414  143.3144  163.8080 C.ar    1  UNL1        0.0645
      7 I         143.3471  144.6721  163.4199 I       1  UNL1       -0.0394
      8 C         141.5260  143.1780  164.5159 C.ar    1  UNL1        0.0120
      9 C         139.7047  141.6840  165.6119 C.2     1  UNL1        0.1983
     10 O         138.4546  142.2219  164.9814 O.2     1  UNL1       -0.2865
     11 C         138.9084  139.7377  167.2620 C.ar    1  UNL1        0.1258
     12 O         139.1111  139.4311  168.7163 O.2     1  UNL1       -0.4577
     13 C         139.9675  140.5137  169.3033 C.ar    1  UNL1        0.1449
     14 C         140.4920  140.7371  170.6907 C.ar    1  UNL1        0.0375
     15 C         141.3432  141.9362  170.9866 C.ar    1  UNL1        0.0031
     16 C         141.6699  142.9119  169.8951 C.ar    1  UNL1        0.0002
     17 C         141.1453  142.6885  168.5078 C.ar    1  UNL1        0.0032
     18 C         140.2941  141.4894  168.2119 C.ar    1  UNL1        0.0403
     19 C         139.6396  141.0098  166.9503 C.ar    1  UNL1        0.0722
     20 C         138.1141  138.9164  166.2901 C.3     1  UNL1        0.0646
     21 C         138.7746  137.8013  165.5351 C.3     1  UNL1        0.0080
     22 C         138.5209  139.0756  163.2853 C.3     1  UNL1        0.0000
     23 C         139.1698  137.9972  164.1014 C.3     1  UNL1        0.0005
     24 O         144.9665  142.2290  162.7804 O.3     1  UNL1       -0.4731
     25 C         145.0002  142.4727  161.3008 C.3     1  UNL1        0.2227
     26 C         144.1004  141.6899  160.3910 C.3     1  UNL1        0.1200
     27 N         142.6977  142.1579  160.1391 N.3     1  UNL1       -0.2696
     28 C         142.4510  143.5449  159.6238 C.3     1  UNL1        0.0722
     29 C         142.7767  143.8849  158.1996 C.3     1  UNL1        0.0188
     30 C         141.5418  141.2389  160.4024 C.3     1  UNL1        0.0722
     31 C         140.4108  141.6886  161.2792 C.3     1  UNL1        0.0188
@<TRIPOS>BOND
     1    22    23    1
     2    23    21    1
     3    21    20    1
     4    20    11    1
     5    11    12   ar
     6    12    13   ar
     7    13    14   ar
     8    14    15   ar
     9    15    16   ar
    10    16    17   ar
    11    17    18   ar
    12    18    19   ar
    13    19     9    1
    14     9    10    2
    15     9     1    1
    16     1     2   ar
    17     2     3   ar
    18     3     4    1
    19     3     5   ar
    20     5    24    1
    21    24    25    1
    22    25    26    1
    23    26    27    1
    24    27    28    1
    25    28    29    1
    26    27    30    1
    27    30    31    1
    28     5     6   ar
    29     6     7    1
    30     6     8   ar
    31    19    11   ar
    32     8     1   ar
    33    18    13   ar
@<TRIPOS>MOLECULE
*****
 31 33 0 0 0
SMALL
GASTEIGER

@<TRIPOS>ATOM
      1 C         140.9594  140.8899  164.1339 C.ar    1  UNL1        0.0401
      2 C         141.2246  140.3864  162.7461 C.ar    1  UNL1        0.0120
      3 C         141.7022  141.3318  161.6839 C.ar    1  UNL1        0.0645
      4 I         141.9675  140.8283  160.2960 I       1  UNL1       -0.0394
      5 C         141.9145  142.7805  162.0096 C.ar    1  UNL1        0.1491
      6 C         141.6492  143.2840  163.3974 C.ar    1  UNL1        0.0645
      7 I         141.8615  144.7327  163.7231 I       1  UNL1       -0.0394
      8 C         141.1717  142.3386  164.4596 C.ar    1  UNL1        0.0120
      9 C         140.4818  139.9445  165.1962 C.2     1  UNL1        0.1983
     10 O         139.1547  139.2610  165.0502 O.2     1  UNL1       -0.2865
     11 C         142.7010  139.0712  166.4034 C.ar    1  UNL1        0.1258
     12 O         143.1766  138.9973  167.8241 O.2     1  UNL1       -0.4577
     13 C         142.1009  139.5632  168.7031 C.ar    1  UNL1        0.1449
     14 C         142.0125  139.7473  170.1891 C.ar    1  UNL1        0.0375
     15 C         140.7837  140.3553  170.7976 C.ar    1  UNL1        0.0031
     16 C         139.6432  140.7790  169.9202 C.ar    1  UNL1        0.0002
     17 C         139.7316  140.5948  168.4342 C.ar    1  UNL1        0.0032
     18 C         140.9605  139.9869  167.8257 C.ar    1  UNL1        0.0403
     19 C         141.3314  139.6829  166.4044 C.ar    1  UNL1        0.0722
     20 C         143.4616  138.6139  165.1941 C.3     1  UNL1        0.0646
     21 C         144.6855  139.3596  164.7516 C.3     1  UNL1        0.0080
     22 C         145.2121  141.3131  163.1217 C.3     1  UNL1        0.0000
     23 C         144.5893  140.8124  164.3911 C.3     1  UNL1        0.0005
     24 O         142.3920  143.7258  160.9473 O.3     1  UNL1       -0.4731
     25 C         141.4053  144.3770  160.0241 C.3     1  UNL1        0.2227
     26 C         139.9558  144.4470  160.4040 C.3     1  UNL1        0.1200
     27 N         139.0258  143.3338  160.0224 N.3     1  UNL1       -0.2696
     28 C         138.1932  142.6590  161.0720 C.3     1  UNL1        0.0722
     29 C         138.0327  143.2911  162.4229 C.3     1  UNL1        0.0188
     30 C         138.9284  142.8952  158.5913 C.3     1  UNL1        0.0722
     31 C         138.3972  141.5323  158.2591 C.3     1  UNL1        0.0188
@<TRIPOS>BOND
     1    22    23    1
     2    23    21    1
     3    21    20    1
     4    20    11    1
     5    11    12   ar
     6    12    13   ar
     7    13    14   ar
     8    14    15   ar
     9    15    16   ar
    10    16    17   ar
    11    17    18   ar
    12    18    19   ar
    13    19     9    1
    14     9    10    2
    15     9     1    1
    16     1     2   ar
    17     2     3   ar
    18     3     4    1
    19     3     5   ar
    20     5    24    1
    21    24    25    1
    22    25    26    1
    23    26    27    1
    24    27    28    1
    25    28    29    1
    26    27    30    1
    27    30    31    1
    28     5     6   ar
    29     6     7    1
    30     6     8   ar
    31    19    11   ar
    32     8     1   ar
    33    18    13   ar
