@<TRIPOS>MOLECULE
*****
 34 38 0 0 0
SMALL
GASTEIGER

@<TRIPOS>ATOM
      1 N         140.4417  138.7380  160.9378 N.3     1  UNL1       -0.2673
      2 C         139.4623  139.8280  161.2579 C.3     1  UNL1        0.1035
      3 C         138.8487  139.9075  162.6243 C.3     1  UNL1        0.1470
      4 C         138.2350  139.9870  163.9907 C.3     1  UNL1        0.1038
      5 N         138.6008  138.9764  165.0371 N.3     1  UNL1       -0.2633
      6 C         139.5803  137.8863  164.7170 C.3     1  UNL1        0.1038
      7 C         140.1939  137.8069  163.3506 C.3     1  UNL1        0.1470
      8 C         140.8075  137.7274  161.9842 C.3     1  UNL1        0.1035
      9 O         139.2145  138.8969  163.6706 O.3     1  UNL1       -0.3530
     10 C         141.0554  138.6585  159.5714 C.3     1  UNL1        0.0913
     11 C         142.3847  137.9893  159.3840 C.3     1  UNL1        0.1087
     12 N         143.6438  138.8044  159.4017 N.3     1  UNL1       -0.1780
     13 H         144.4214  138.1462  159.3516 H       1  UNL1        0.1488
     14 S         143.9270  139.7223  160.5537 S.O2    1  UNL1        0.0603
     15 O         144.1128  138.5362  161.4530 O.2     1  UNL1       -0.1530
     16 O         143.7411  140.9083  159.6545 O.2     1  UNL1       -0.1530
     17 C         144.7764  142.4758  164.0101 C.ar    1  UNL1        0.0685
     18 C         144.4219  143.0442  162.6680 C.ar    1  UNL1        0.0116
     19 C         144.1387  142.1263  161.5158 C.ar    1  UNL1        0.0206
     20 C         144.2101  140.6401  161.7058 C.ar    1  UNL1        0.1220
     21 C         144.5646  140.0718  163.0480 C.ar    1  UNL1        0.0206
     22 C         144.8478  140.9896  164.2001 C.ar    1  UNL1        0.0116
     23 N         145.3427  144.3116  166.3143 N.1     1  UNL1       -0.1908
     24 C         145.0595  143.3937  165.1622 C.1     1  UNL1        0.1004
     25 C         137.9872  139.0559  166.4035 C.3     1  UNL1        0.1223
     26 C         138.7782  139.6134  167.5497 C.ar    1  UNL1        0.1167
     27 N         138.4674  139.4326  169.0059 N.ar    1  UNL1       -0.0800
     28 O         139.5160  140.1569  169.7971 O.2     1  UNL1       -0.3537
     29 C         140.4748  140.7853  168.8297 C.ar    1  UNL1        0.1765
     30 C         141.7042  141.6201  169.0341 C.ar    1  UNL1        0.0402
     31 C         142.4776  142.1188  167.8497 C.ar    1  UNL1        0.0032
     32 C         142.0217  141.7829  166.4607 C.ar    1  UNL1        0.0002
     33 C         140.7923  140.9481  166.2562 C.ar    1  UNL1        0.0045
     34 C         140.0189  140.4494  167.4408 C.ar    1  UNL1        0.0552
@<TRIPOS>BOND
     1    23    24    3
     2    24    17    1
     3    17    18   ar
     4    18    19   ar
     5    19    20   ar
     6    20    14    1
     7    14    15    2
     8    14    16    2
     9    14    12    1
    10    12    11    1
    11    11    10    1
    12    10     1    1
    13     1     2    1
    14     2     3    1
    15     3     4    1
    16     4     5    1
    17     5    25    1
    18    25    26    1
    19    26    27   ar
    20    27    28   ar
    21    28    29   ar
    22    29    30   ar
    23    30    31   ar
    24    31    32   ar
    25    32    33   ar
    26    33    34   ar
    27     5     6    1
    28     6     7    1
    29     7     8    1
    30     7     9    1
    31    20    21   ar
    32    21    22   ar
    33    22    17   ar
    34     8     1    1
    35     9     3    1
    36    34    26   ar
    37    34    29   ar
    38    12    13    1
@<TRIPOS>MOLECULE
*****
 34 38 0 0 0
SMALL
GASTEIGER

@<TRIPOS>ATOM
      1 N         142.7958  140.2490  167.5572 N.3     1  UNL1       -0.2673
      2 C         142.9455  139.5125  166.2591 C.3     1  UNL1        0.1035
      3 C         143.3962  140.2439  165.0295 C.3     1  UNL1        0.1470
      4 C         143.8470  140.9753  163.7999 C.3     1  UNL1        0.1038
      5 N         144.1480  142.4431  163.8684 N.3     1  UNL1       -0.2633
      6 C         143.9982  143.1797  165.1666 C.3     1  UNL1        0.1038
      7 C         143.5475  142.4483  166.3962 C.3     1  UNL1        0.1470
      8 C         143.0968  141.7169  167.6257 C.3     1  UNL1        0.1035
      9 O         143.6972  141.7118  165.0981 O.3     1  UNL1       -0.3530
     10 C         142.3450  139.5176  168.7868 C.3     1  UNL1        0.0913
     11 C         141.1009  139.9515  169.5038 C.3     1  UNL1        0.1087
     12 N         139.7575  139.7360  168.8722 N.3     1  UNL1       -0.1780
     13 H         139.6072  138.7278  168.8367 H       1  UNL1        0.1488
     14 S         139.4828  140.2636  167.4952 S.O2    1  UNL1        0.0603
     15 O         139.1440  138.8778  167.0319 O.2     1  UNL1       -0.1530
     16 O         139.8216  141.6494  167.9586 O.2     1  UNL1       -0.1530
     17 C         138.6586  141.8464  163.3642 C.ar    1  UNL1        0.0685
     18 C         137.9656  140.6056  163.8440 C.ar    1  UNL1        0.0116
     19 C         138.2403  140.0780  165.2211 C.ar    1  UNL1        0.0206
     20 C         139.2081  140.7912  166.1182 C.ar    1  UNL1        0.1220
     21 C         139.9011  142.0320  165.6384 C.ar    1  UNL1        0.0206
     22 C         139.6264  142.5595  164.2614 C.ar    1  UNL1        0.0116
     23 N         138.1092  142.9016  160.6101 N.1     1  UNL1       -0.1908
     24 C         138.3839  142.3739  161.9872 C.1     1  UNL1        0.1004
     25 C         144.5987  143.1745  162.6388 C.3     1  UNL1        0.1223
     26 C         143.5925  143.6166  161.6179 C.ar    1  UNL1        0.1167
     27 N         143.6245  143.2971  160.1527 N.ar    1  UNL1       -0.0800
     28 O         142.4294  143.9388  159.5122 O.2     1  UNL1       -0.3537
     29 C         141.6589  144.6548  160.5817 C.ar    1  UNL1        0.1765
     30 C         140.3956  145.4624  160.5387 C.ar    1  UNL1        0.0402
     31 C         139.8512  146.0708  161.7969 C.ar    1  UNL1        0.0032
     32 C         140.5700  145.8717  163.0984 C.ar    1  UNL1        0.0002
     33 C         141.8333  145.0641  163.1414 C.ar    1  UNL1        0.0045
     34 C         142.3777  144.4557  161.8831 C.ar    1  UNL1        0.0552
@<TRIPOS>BOND
     1    23    24    3
     2    24    17    1
     3    17    18   ar
     4    18    19   ar
     5    19    20   ar
     6    20    14    1
     7    14    15    2
     8    14    16    2
     9    14    12    1
    10    12    11    1
    11    11    10    1
    12    10     1    1
    13     1     2    1
    14     2     3    1
    15     3     4    1
    16     4     5    1
    17     5    25    1
    18    25    26    1
    19    26    27   ar
    20    27    28   ar
    21    28    29   ar
    22    29    30   ar
    23    30    31   ar
    24    31    32   ar
    25    32    33   ar
    26    33    34   ar
    27     5     6    1
    28     6     7    1
    29     7     8    1
    30     7     9    1
    31    20    21   ar
    32    21    22   ar
    33    22    17   ar
    34     8     1    1
    35     9     3    1
    36    34    26   ar
    37    34    29   ar
    38    12    13    1
@<TRIPOS>MOLECULE
*****
 34 38 0 0 0
SMALL
GASTEIGER

@<TRIPOS>ATOM
      1 N         141.4894  138.8644  160.9353 N.3     1  UNL1       -0.2673
      2 C         142.7477  139.5788  161.3306 C.3     1  UNL1        0.1035
      3 C         143.2659  139.4645  162.7336 C.3     1  UNL1        0.1470
      4 C         143.7841  139.3503  164.1366 C.3     1  UNL1        0.1038
      5 N         143.0439  138.5217  165.1444 N.3     1  UNL1       -0.2633
      6 C         141.7855  137.8073  164.7490 C.3     1  UNL1        0.1038
      7 C         141.2674  137.9215  163.3460 C.3     1  UNL1        0.1470
      8 C         140.7492  138.0358  161.9431 C.3     1  UNL1        0.1035
      9 O         142.5257  138.6359  163.7413 O.3     1  UNL1       -0.3530
     10 C         140.9712  138.9787  159.5323 C.3     1  UNL1        0.0913
     11 C         139.5220  138.7198  159.2446 C.3     1  UNL1        0.1087
     12 N         138.5421  139.8555  159.2486 N.3     1  UNL1       -0.1780
     13 H         138.7461  140.4234  158.4263 H       1  UNL1        0.1488
     14 S         138.4847  140.7925  160.4185 S.O2    1  UNL1        0.0603
     15 O         137.9370  139.6897  161.2750 O.2     1  UNL1       -0.1530
     16 O         139.0325  141.8954  159.5620 O.2     1  UNL1       -0.1530
     17 C         138.3127  143.6035  163.9283 C.ar    1  UNL1        0.0685
     18 C         139.2439  143.8854  162.7866 C.ar    1  UNL1        0.0116
     19 C         139.3012  142.9484  161.6166 C.ar    1  UNL1        0.0206
     20 C         138.4274  141.7295  161.5884 C.ar    1  UNL1        0.1220
     21 C         137.4962  141.4477  162.7302 C.ar    1  UNL1        0.0206
     22 C         137.4389  142.3847  163.9001 C.ar    1  UNL1        0.0116
     23 N         138.1982  145.4776  166.2682 N.1     1  UNL1       -0.1908
     24 C         138.2554  144.5405  165.0982 C.1     1  UNL1        0.1004
     25 C         143.5620  138.4074  166.5473 C.3     1  UNL1        0.1223
     26 C         142.8914  139.1600  167.6582 C.ar    1  UNL1        0.1167
     27 N         142.9009  138.7828  169.1100 N.ar    1  UNL1       -0.0800
     28 O         142.1089  139.8116  169.8613 O.2     1  UNL1       -0.3537
     29 C         141.6101  140.8246  168.8738 C.ar    1  UNL1        0.1765
     30 C         140.7779  142.0617  169.0386 C.ar    1  UNL1        0.0402
     31 C         140.4294  142.8960  167.8418 C.ar    1  UNL1        0.0032
     32 C         140.9130  142.4933  166.4802 C.ar    1  UNL1        0.0002
     33 C         141.7451  141.2562  166.3154 C.ar    1  UNL1        0.0045
     34 C         142.0937  140.4219  167.5123 C.ar    1  UNL1        0.0552
@<TRIPOS>BOND
     1    23    24    3
     2    24    17    1
     3    17    18   ar
     4    18    19   ar
     5    19    20   ar
     6    20    14    1
     7    14    15    2
     8    14    16    2
     9    14    12    1
    10    12    11    1
    11    11    10    1
    12    10     1    1
    13     1     2    1
    14     2     3    1
    15     3     4    1
    16     4     5    1
    17     5    25    1
    18    25    26    1
    19    26    27   ar
    20    27    28   ar
    21    28    29   ar
    22    29    30   ar
    23    30    31   ar
    24    31    32   ar
    25    32    33   ar
    26    33    34   ar
    27     5     6    1
    28     6     7    1
    29     7     8    1
    30     7     9    1
    31    20    21   ar
    32    21    22   ar
    33    22    17   ar
    34     8     1    1
    35     9     3    1
    36    34    26   ar
    37    34    29   ar
    38    12    13    1
@<TRIPOS>MOLECULE
*****
 34 38 0 0 0
SMALL
GASTEIGER

@<TRIPOS>ATOM
      1 N         138.8795  141.8186  159.2900 N.3     1  UNL1       -0.2673
      2 C         139.6969  140.5613  159.2559 C.3     1  UNL1        0.1035
      3 C         139.6769  139.6220  160.4251 C.3     1  UNL1        0.1470
      4 C         139.6570  138.6825  161.5944 C.3     1  UNL1        0.1038
      5 N         138.8198  139.0004  162.7977 N.3     1  UNL1       -0.2633
      6 C         138.0025  140.2578  162.8318 C.3     1  UNL1        0.1038
      7 C         138.0224  141.1972  161.6625 C.3     1  UNL1        0.1470
      8 C         138.0423  142.1365  160.4933 C.3     1  UNL1        0.1035
      9 O         138.8397  139.9399  161.6284 O.3     1  UNL1       -0.3530
     10 C         138.8994  142.7581  158.1207 C.3     1  UNL1        0.0913
     11 C         139.8845  143.8887  158.0837 C.3     1  UNL1        0.1087
     12 N         139.8749  144.9276  159.1656 N.3     1  UNL1       -0.1780
     13 H         140.1090  145.8161  158.7228 H       1  UNL1        0.1488
     14 S         140.7810  144.7832  160.3522 S.O2    1  UNL1        0.0603
     15 O         139.6364  145.1075  161.2658 O.2     1  UNL1       -0.1530
     16 O         141.9256  144.4590  159.4386 O.2     1  UNL1       -0.1530
     17 C         143.4996  144.3500  163.9119 C.ar    1  UNL1        0.0685
     18 C         142.1881  145.0643  164.0524 C.ar    1  UNL1        0.0116
     19 C         141.2819  145.2087  162.8658 C.ar    1  UNL1        0.0206
     20 C         141.6872  144.6388  161.5388 C.ar    1  UNL1        0.1220
     21 C         142.9987  143.9245  161.3983 C.ar    1  UNL1        0.0206
     22 C         143.9049  143.7801  162.5849 C.ar    1  UNL1        0.0116
     23 N         145.3120  144.0612  166.2851 N.1     1  UNL1       -0.1908
     24 C         144.4058  144.2056  165.0985 C.1     1  UNL1        0.1004
     25 C         138.7999  138.0610  163.9669 C.3     1  UNL1        0.1223
     26 C         138.7741  138.6041  165.3650 C.ar    1  UNL1        0.1167
     27 N         137.8187  138.2023  166.4493 N.ar    1  UNL1       -0.0800
     28 O         138.1532  138.9941  167.6787 O.2     1  UNL1       -0.3537
     29 C         139.3154  139.8853  167.3540 C.ar    1  UNL1        0.1765
     30 C         140.0738  140.8851  168.1756 C.ar    1  UNL1        0.0402
     31 C         141.2159  141.6438  167.5675 C.ar    1  UNL1        0.0032
     32 C         141.5996  141.4027  166.1375 C.ar    1  UNL1        0.0002
     33 C         140.8412  140.4029  165.3158 C.ar    1  UNL1        0.0045
     34 C         139.6991  139.6442  165.9241 C.ar    1  UNL1        0.0552
@<TRIPOS>BOND
     1    23    24    3
     2    24    17    1
     3    17    18   ar
     4    18    19   ar
     5    19    20   ar
     6    20    14    1
     7    14    15    2
     8    14    16    2
     9    14    12    1
    10    12    11    1
    11    11    10    1
    12    10     1    1
    13     1     2    1
    14     2     3    1
    15     3     4    1
    16     4     5    1
    17     5    25    1
    18    25    26    1
    19    26    27   ar
    20    27    28   ar
    21    28    29   ar
    22    29    30   ar
    23    30    31   ar
    24    31    32   ar
    25    32    33   ar
    26    33    34   ar
    27     5     6    1
    28     6     7    1
    29     7     8    1
    30     7     9    1
    31    20    21   ar
    32    21    22   ar
    33    22    17   ar
    34     8     1    1
    35     9     3    1
    36    34    26   ar
    37    34    29   ar
    38    12    13    1
@<TRIPOS>MOLECULE
*****
 34 38 0 0 0
SMALL
GASTEIGER

@<TRIPOS>ATOM
      1 N         140.4253  139.1380  158.8679 N.3     1  UNL1       -0.2673
      2 C         140.5195  140.6323  158.7767 C.3     1  UNL1        0.1035
      3 C         139.7966  141.4914  159.7714 C.3     1  UNL1        0.1470
      4 C         139.0737  142.3505  160.7660 C.3     1  UNL1        0.1038
      5 N         138.2566  141.7154  161.8519 N.3     1  UNL1       -0.2633
      6 C         138.1625  140.2211  161.9430 C.3     1  UNL1        0.1038
      7 C         138.8853  139.3620  160.9484 C.3     1  UNL1        0.1470
      8 C         139.6082  138.5029  159.9538 C.3     1  UNL1        0.1035
      9 O         138.9795  140.8562  160.8572 O.3     1  UNL1       -0.3530
     10 C         141.1482  138.2789  157.8733 C.3     1  UNL1        0.0913
     11 C         142.5170  137.7539  158.1905 C.3     1  UNL1        0.1087
     12 N         143.4871  138.6034  158.9569 N.3     1  UNL1       -0.1780
     13 H         144.4219  138.2769  158.7119 H       1  UNL1        0.1488
     14 S         143.4232  138.6493  160.4548 S.O2    1  UNL1        0.0603
     15 O         143.6920  140.1246  160.4211 O.2     1  UNL1       -0.1530
     16 O         143.1545  137.1740  160.4885 O.2     1  UNL1       -0.1530
     17 C         143.2317  138.7869  164.9486 C.ar    1  UNL1        0.0685
     18 C         142.1487  138.0979  164.1726 C.ar    1  UNL1        0.0116
     19 C         142.2125  138.0520  162.6746 C.ar    1  UNL1        0.0206
     20 C         143.3594  138.6951  161.9527 C.ar    1  UNL1        0.1220
     21 C         144.4424  139.3842  162.7289 C.ar    1  UNL1        0.0206
     22 C         144.3785  139.4301  164.2268 C.ar    1  UNL1        0.0116
     23 N         143.1040  138.8787  167.9445 N.1     1  UNL1       -0.1908
     24 C         143.1678  138.8328  166.4465 C.1     1  UNL1        0.1004
     25 C         137.5337  142.5745  162.8465 C.3     1  UNL1        0.1223
     26 C         138.2779  143.1681  164.0058 C.ar    1  UNL1        0.1167
     27 N         138.4615  144.6315  164.2794 N.ar    1  UNL1       -0.0800
     28 O         139.2662  144.7704  165.5377 O.2     1  UNL1       -0.3537
     29 C         139.5800  143.3928  166.0416 C.ar    1  UNL1        0.1765
     30 C         140.3430  142.9121  167.2403 C.ar    1  UNL1        0.0402
     31 C         140.4952  141.4414  167.4922 C.ar    1  UNL1        0.0032
     32 C         139.8844  140.4511  166.5454 C.ar    1  UNL1        0.0002
     33 C         139.1214  140.9317  165.3468 C.ar    1  UNL1        0.0045
     34 C         138.9692  142.4026  165.0949 C.ar    1  UNL1        0.0552
@<TRIPOS>BOND
     1    23    24    3
     2    24    17    1
     3    17    18   ar
     4    18    19   ar
     5    19    20   ar
     6    20    14    1
     7    14    15    2
     8    14    16    2
     9    14    12    1
    10    12    11    1
    11    11    10    1
    12    10     1    1
    13     1     2    1
    14     2     3    1
    15     3     4    1
    16     4     5    1
    17     5    25    1
    18    25    26    1
    19    26    27   ar
    20    27    28   ar
    21    28    29   ar
    22    29    30   ar
    23    30    31   ar
    24    31    32   ar
    25    32    33   ar
    26    33    34   ar
    27     5     6    1
    28     6     7    1
    29     7     8    1
    30     7     9    1
    31    20    21   ar
    32    21    22   ar
    33    22    17   ar
    34     8     1    1
    35     9     3    1
    36    34    26   ar
    37    34    29   ar
    38    12    13    1
@<TRIPOS>MOLECULE
*****
 34 38 0 0 0
SMALL
GASTEIGER

@<TRIPOS>ATOM
      1 N         141.1197  139.9486  159.3743 N.3     1  UNL1       -0.2673
      2 C         142.1034  141.0037  159.7856 C.3     1  UNL1        0.1035
      3 C         142.9724  140.7904  160.9894 C.3     1  UNL1        0.1470
      4 C         143.8415  140.5772  162.1933 C.3     1  UNL1        0.1038
      5 N         143.7269  139.3088  162.9858 N.3     1  UNL1       -0.2633
      6 C         142.7432  138.2537  162.5745 C.3     1  UNL1        0.1038
      7 C         141.8742  138.4670  161.3707 C.3     1  UNL1        0.1470
      8 C         141.0051  138.6802  160.1669 C.3     1  UNL1        0.1035
      9 O         142.8578  139.5221  161.7820 O.3     1  UNL1       -0.3530
     10 C         140.2506  140.1618  158.1704 C.3     1  UNL1        0.0913
     11 C         138.7594  140.2170  158.3223 C.3     1  UNL1        0.1087
     12 N         138.1411  141.1505  159.3205 N.3     1  UNL1       -0.1780
     13 H         138.6014  142.0532  159.2038 H       1  UNL1        0.1488
     14 S         138.1916  140.8245  160.7837 S.O2    1  UNL1        0.0603
     15 O         138.9501  142.0929  161.0401 O.2     1  UNL1       -0.1530
     16 O         137.4331  139.5561  160.5273 O.2     1  UNL1       -0.1530
     17 C         138.3432  139.8465  165.1735 C.ar    1  UNL1        0.0685
     18 C         138.1500  141.2655  164.7276 C.ar    1  UNL1        0.0116
     19 C         138.0995  141.5916  163.2642 C.ar    1  UNL1        0.0206
     20 C         138.2421  140.4985  162.2470 C.ar    1  UNL1        0.1220
     21 C         138.4353  139.0794  162.6930 C.ar    1  UNL1        0.0206
     22 C         138.4858  138.7534  164.1562 C.ar    1  UNL1        0.0116
     23 N         138.4442  139.1945  168.1001 N.1     1  UNL1       -0.1908
     24 C         138.3937  139.5205  166.6368 C.1     1  UNL1        0.1004
     25 C         144.5960  139.0956  164.1897 C.3     1  UNL1        0.1223
     26 C         143.9856  139.0657  165.5596 C.ar    1  UNL1        0.1167
     27 N         144.2242  138.0202  166.6084 N.ar    1  UNL1       -0.0800
     28 O         143.4155  138.3843  167.8182 O.2     1  UNL1       -0.3537
     29 C         142.6772  139.6548  167.5170 C.ar    1  UNL1        0.1765
     30 C         141.7295  140.4827  168.3334 C.ar    1  UNL1        0.0402
     31 C         141.1343  141.7316  167.7540 C.ar    1  UNL1        0.0032
     32 C         141.4866  142.1527  166.3580 C.ar    1  UNL1        0.0002
     33 C         142.4342  141.3248  165.5416 C.ar    1  UNL1        0.0045
     34 C         143.0295  140.0759  166.1211 C.ar    1  UNL1        0.0552
@<TRIPOS>BOND
     1    23    24    3
     2    24    17    1
     3    17    18   ar
     4    18    19   ar
     5    19    20   ar
     6    20    14    1
     7    14    15    2
     8    14    16    2
     9    14    12    1
    10    12    11    1
    11    11    10    1
    12    10     1    1
    13     1     2    1
    14     2     3    1
    15     3     4    1
    16     4     5    1
    17     5    25    1
    18    25    26    1
    19    26    27   ar
    20    27    28   ar
    21    28    29   ar
    22    29    30   ar
    23    30    31   ar
    24    31    32   ar
    25    32    33   ar
    26    33    34   ar
    27     5     6    1
    28     6     7    1
    29     7     8    1
    30     7     9    1
    31    20    21   ar
    32    21    22   ar
    33    22    17   ar
    34     8     1    1
    35     9     3    1
    36    34    26   ar
    37    34    29   ar
    38    12    13    1
@<TRIPOS>MOLECULE
*****
 34 38 0 0 0
SMALL
GASTEIGER

@<TRIPOS>ATOM
      1 N         143.9887  140.8104  160.7634 N.3     1  UNL1       -0.2673
      2 C         142.9391  139.7652  161.0001 C.3     1  UNL1        0.1035
      3 C         142.8051  139.1296  162.3521 C.3     1  UNL1        0.1470
      4 C         142.6710  138.4940  163.7042 C.3     1  UNL1        0.1038
      5 N         143.5865  138.9036  164.8196 N.3     1  UNL1       -0.2633
      6 C         144.6361  139.9488  164.5829 C.3     1  UNL1        0.1038
      7 C         144.7701  140.5844  163.2309 C.3     1  UNL1        0.1470
      8 C         144.9042  141.2200  161.8788 C.3     1  UNL1        0.1035
      9 O         143.7206  139.5392  163.4675 O.3     1  UNL1       -0.3530
     10 C         144.1227  141.4460  159.4113 C.3     1  UNL1        0.0913
     11 C         142.8964  141.8441  158.6448 C.3     1  UNL1        0.1087
     12 N         142.3257  143.2220  158.8059 N.3     1  UNL1       -0.1780
     13 H         143.1019  143.8759  158.7047 H       1  UNL1        0.1488
     14 S         141.6084  143.5936  160.0698 S.O2    1  UNL1        0.0603
     15 O         142.8502  144.2646  160.5773 O.2     1  UNL1       -0.1530
     16 O         140.3666  142.9226  159.5623 O.2     1  UNL1       -0.1530
     17 C         139.4564  144.7085  163.8613 C.ar    1  UNL1        0.0685
     18 C         140.9237  144.9869  163.7222 C.ar    1  UNL1        0.0116
     19 C         141.6411  144.6152  162.4583 C.ar    1  UNL1        0.0206
     20 C         140.8911  143.9653  161.3336 C.ar    1  UNL1        0.1220
     21 C         139.4237  143.6869  161.4727 C.ar    1  UNL1        0.0206
     22 C         138.7064  144.0586  162.7366 C.ar    1  UNL1        0.0116
     23 N         138.0218  145.4519  166.3890 N.1     1  UNL1       -0.1908
     24 C         138.7391  145.0802  165.1251 C.1     1  UNL1        0.1004
     25 C         143.4525  138.2680  166.1716 C.3     1  UNL1        0.1223
     26 C         142.9239  139.0661  167.3265 C.ar    1  UNL1        0.1167
     27 N         143.1241  138.7529  168.7797 N.ar    1  UNL1       -0.0800
     28 O         142.4262  139.8107  169.5823 O.2     1  UNL1       -0.3537
     29 C         141.7948  140.7777  168.6250 C.ar    1  UNL1        0.1765
     30 C         140.9794  142.0178  168.8427 C.ar    1  UNL1        0.0402
     31 C         140.4717  142.7976  167.6664 C.ar    1  UNL1        0.0032
     32 C         140.7793  142.3374  166.2721 C.ar    1  UNL1        0.0002
     33 C         141.5946  141.0974  166.0545 C.ar    1  UNL1        0.0045
     34 C         142.1023  140.3175  167.2309 C.ar    1  UNL1        0.0552
@<TRIPOS>BOND
     1    23    24    3
     2    24    17    1
     3    17    18   ar
     4    18    19   ar
     5    19    20   ar
     6    20    14    1
     7    14    15    2
     8    14    16    2
     9    14    12    1
    10    12    11    1
    11    11    10    1
    12    10     1    1
    13     1     2    1
    14     2     3    1
    15     3     4    1
    16     4     5    1
    17     5    25    1
    18    25    26    1
    19    26    27   ar
    20    27    28   ar
    21    28    29   ar
    22    29    30   ar
    23    30    31   ar
    24    31    32   ar
    25    32    33   ar
    26    33    34   ar
    27     5     6    1
    28     6     7    1
    29     7     8    1
    30     7     9    1
    31    20    21   ar
    32    21    22   ar
    33    22    17   ar
    34     8     1    1
    35     9     3    1
    36    34    26   ar
    37    34    29   ar
    38    12    13    1
@<TRIPOS>MOLECULE
*****
 34 38 0 0 0
SMALL
GASTEIGER

@<TRIPOS>ATOM
      1 N         144.2589  141.8687  159.6505 N.3     1  UNL1       -0.2673
      2 C         143.7299  140.4661  159.7045 C.3     1  UNL1        0.1035
      3 C         143.5709  139.7750  161.0262 C.3     1  UNL1        0.1470
      4 C         143.4118  139.0838  162.3480 C.3     1  UNL1        0.1038
      5 N         143.7819  139.7952  163.6157 N.3     1  UNL1       -0.2633
      6 C         144.3109  141.1978  163.5616 C.3     1  UNL1        0.1038
      7 C         144.4699  141.8889  162.2399 C.3     1  UNL1        0.1470
      8 C         144.6289  142.5801  160.9182 C.3     1  UNL1        0.1035
      9 O         143.9409  140.4864  162.2939 O.3     1  UNL1       -0.3530
     10 C         144.4180  142.5599  158.3287 C.3     1  UNL1        0.0913
     11 C         143.2466  142.6801  157.3995 C.3     1  UNL1        0.1087
     12 N         142.2439  143.7785  157.5949 N.3     1  UNL1       -0.1780
     13 H         142.7101  144.6507  157.3451 H       1  UNL1        0.1488
     14 S         141.6183  143.9921  158.9413 S.O2    1  UNL1        0.0603
     15 O         140.9995  142.6276  158.8703 O.2     1  UNL1       -0.1530
     16 O         142.2371  145.3566  159.0124 O.2     1  UNL1       -0.1530
     17 C         139.7415  144.6330  162.9807 C.ar    1  UNL1        0.0685
     18 C         140.3143  143.2935  162.6239 C.ar    1  UNL1        0.0116
     19 C         140.9399  143.0798  161.2774 C.ar    1  UNL1        0.0206
     20 C         140.9927  144.2057  160.2878 C.ar    1  UNL1        0.1220
     21 C         140.4199  145.5454  160.6446 C.ar    1  UNL1        0.0206
     22 C         139.7943  145.7590  161.9911 C.ar    1  UNL1        0.0116
     23 N         138.4902  145.0603  165.6737 N.1     1  UNL1       -0.1908
     24 C         139.1159  144.8467  164.3272 C.1     1  UNL1        0.1004
     25 C         143.6228  139.1040  164.9374 C.3     1  UNL1        0.1223
     26 C         142.5393  139.5324  165.8822 C.ar    1  UNL1        0.1167
     27 N         142.6966  140.4845  167.0306 N.ar    1  UNL1       -0.0800
     28 O         141.3628  140.6244  167.7027 O.2     1  UNL1       -0.3537
     29 C         140.3814  139.7587  166.9696 C.ar    1  UNL1        0.1765
     30 C         138.9195  139.4977  167.1813 C.ar    1  UNL1        0.0402
     31 C         138.1848  138.5619  166.2679 C.ar    1  UNL1        0.0032
     32 C         138.9119  137.8869  165.1428 C.ar    1  UNL1        0.0002
     33 C         140.3738  138.1479  164.9312 C.ar    1  UNL1        0.0045
     34 C         141.1085  139.0838  165.8446 C.ar    1  UNL1        0.0552
@<TRIPOS>BOND
     1    23    24    3
     2    24    17    1
     3    17    18   ar
     4    18    19   ar
     5    19    20   ar
     6    20    14    1
     7    14    15    2
     8    14    16    2
     9    14    12    1
    10    12    11    1
    11    11    10    1
    12    10     1    1
    13     1     2    1
    14     2     3    1
    15     3     4    1
    16     4     5    1
    17     5    25    1
    18    25    26    1
    19    26    27   ar
    20    27    28   ar
    21    28    29   ar
    22    29    30   ar
    23    30    31   ar
    24    31    32   ar
    25    32    33   ar
    26    33    34   ar
    27     5     6    1
    28     6     7    1
    29     7     8    1
    30     7     9    1
    31    20    21   ar
    32    21    22   ar
    33    22    17   ar
    34     8     1    1
    35     9     3    1
    36    34    26   ar
    37    34    29   ar
    38    12    13    1
@<TRIPOS>MOLECULE
*****
 34 38 0 0 0
SMALL
GASTEIGER

@<TRIPOS>ATOM
      1 N         139.9143  143.0368  158.1591 N.3     1  UNL1       -0.2673
      2 C         138.5798  142.6356  158.7141 C.3     1  UNL1        0.1035
      3 C         138.4458  141.3655  159.5007 C.3     1  UNL1        0.1470
      4 C         138.3118  140.0953  160.2873 C.3     1  UNL1        0.1038
      5 N         139.5123  139.2263  160.5188 N.3     1  UNL1       -0.2633
      6 C         140.8469  139.6275  159.9638 C.3     1  UNL1        0.1038
      7 C         140.9809  140.8977  159.1772 C.3     1  UNL1        0.1470
      8 C         141.1148  142.1678  158.3906 C.3     1  UNL1        0.1035
      9 O         139.6464  140.4965  159.7322 O.3     1  UNL1       -0.3530
     10 C         140.0483  144.3070  157.3724 C.3     1  UNL1        0.0913
     11 C         140.5714  145.5473  158.0342 C.3     1  UNL1        0.1087
     12 N         140.0631  145.9465  159.3879 N.3     1  UNL1       -0.1780
     13 H         140.3034  146.9297  159.5145 H       1  UNL1        0.1488
     14 S         140.5410  145.2229  160.6117 S.O2    1  UNL1        0.0603
     15 O         141.9293  145.1817  160.0453 O.2     1  UNL1       -0.1530
     16 O         139.1528  145.2640  161.1782 O.2     1  UNL1       -0.1530
     17 C         141.9748  143.0519  164.2834 C.ar    1  UNL1        0.0685
     18 C         142.3158  144.4993  164.0869 C.ar    1  UNL1        0.0116
     19 C         141.8379  145.2230  162.8630 C.ar    1  UNL1        0.0206
     20 C         141.0190  144.4992  161.8356 C.ar    1  UNL1        0.1220
     21 C         140.6779  143.0518  162.0322 C.ar    1  UNL1        0.0206
     22 C         141.1559  142.3281  163.2561 C.ar    1  UNL1        0.0116
     23 N         142.9306  141.6046  166.7313 N.1     1  UNL1       -0.1908
     24 C         142.4527  142.3283  165.5073 C.1     1  UNL1        0.1004
     25 C         139.3784  137.9562  161.3054 C.3     1  UNL1        0.1223
     26 C         139.9547  137.8654  162.6874 C.ar    1  UNL1        0.1167
     27 N         140.9774  136.8715  163.1525 N.ar    1  UNL1       -0.0800
     28 O         141.2643  137.1445  164.5994 O.2     1  UNL1       -0.3537
     29 C         140.4190  138.3070  165.0283 C.ar    1  UNL1        0.1765
     30 C         140.2816  139.0175  166.3422 C.ar    1  UNL1        0.0402
     31 C         139.3350  140.1734  166.4744 C.ar    1  UNL1        0.0032
     32 C         138.5256  140.6190  165.2927 C.ar    1  UNL1        0.0002
     33 C         138.6629  139.9086  163.9788 C.ar    1  UNL1        0.0045
     34 C         139.6096  138.7526  163.8466 C.ar    1  UNL1        0.0552
@<TRIPOS>BOND
     1    23    24    3
     2    24    17    1
     3    17    18   ar
     4    18    19   ar
     5    19    20   ar
     6    20    14    1
     7    14    15    2
     8    14    16    2
     9    14    12    1
    10    12    11    1
    11    11    10    1
    12    10     1    1
    13     1     2    1
    14     2     3    1
    15     3     4    1
    16     4     5    1
    17     5    25    1
    18    25    26    1
    19    26    27   ar
    20    27    28   ar
    21    28    29   ar
    22    29    30   ar
    23    30    31   ar
    24    31    32   ar
    25    32    33   ar
    26    33    34   ar
    27     5     6    1
    28     6     7    1
    29     7     8    1
    30     7     9    1
    31    20    21   ar
    32    21    22   ar
    33    22    17   ar
    34     8     1    1
    35     9     3    1
    36    34    26   ar
    37    34    29   ar
    38    12    13    1
