@<TRIPOS>MOLECULE
*****
 34 36 0 0 0
SMALL
GASTEIGER

@<TRIPOS>ATOM
      1 C         141.3813  140.3324  166.8027 C.2     1  UNL1        0.0806
      2 N         141.5061  140.4321  168.2941 N.2     1  UNL1       -0.2021
      3 C         140.3404  140.0793  169.1696 C.2     1  UNL1        0.3040
      4 N         139.0497  139.6268  168.5536 N.2     1  UNL1       -0.0109
      5 C         138.9248  139.5271  167.0622 C.2     1  UNL1        0.3639
      6 N         137.7873  139.1149  166.1756 N.2     1  UNL1       -0.0335
      7 C         138.2500  139.2129  164.7521 C.2     1  UNL1        0.2424
      8 C         139.6736  139.6858  164.7590 C.2     1  UNL1        0.1101
      9 C         140.0906  139.8799  166.1867 C.3     1  UNL1        0.1876
     10 C         143.9946  142.4737  164.7206 C.ar    1  UNL1        0.1491
     11 C         142.8289  142.1209  165.5960 C.ar    1  UNL1        0.0398
     12 C         142.5471  140.6852  165.9272 C.ar    1  UNL1        0.0283
     13 C         143.4310  139.6025  165.3829 C.ar    1  UNL1        0.0598
     14 CL        143.1492  138.1669  165.7141 Cl      1  UNL1       -0.0822
     15 C         144.5968  139.9554  164.5075 C.ar    1  UNL1        0.0259
     16 C         144.8786  141.3910  164.1763 C.ar    1  UNL1        0.0924
     17 CL        146.0444  141.7438  163.3009 Cl      1  UNL1       -0.0791
     18 O         144.2764  143.9093  164.3894 O.3     1  UNL1       -0.4731
     19 C         143.4805  144.6034  163.3243 C.3     1  UNL1        0.2227
     20 C         142.1782  145.2623  163.6707 C.3     1  UNL1        0.1200
     21 N         140.8903  144.5112  163.5052 N.3     1  UNL1       -0.2696
     22 C         139.3950  143.4914  165.3691 C.3     1  UNL1        0.0188
     23 C         139.7982  144.6621  164.5223 C.3     1  UNL1        0.0722
     24 C         140.6947  143.6093  162.3228 C.3     1  UNL1        0.0722
     25 C         139.3753  143.5834  161.6094 C.3     1  UNL1        0.0188
     26 C         140.5297  139.9228  163.5503 C.1     1  UNL1        0.1009
     27 N         141.3858  140.1598  162.3417 N.1     1  UNL1       -0.1910
     28 S         140.4653  140.1789  170.6611 S.3     1  UNL1       -0.0383
     29 C         140.7910  141.4964  171.3001 C.3     1  UNL1        0.1520
     30 C         141.8871  142.3521  170.7377 C.2     1  UNL1        0.2340
     31 O         141.6178  143.7879  170.3971 O.2     1  UNL1       -0.2741
     32 N         143.2525  141.7720  170.5160 N.am    1  UNL1       -0.3019
     33 C         144.3486  142.6278  169.9536 C.3     1  UNL1        0.1107
     34 H         143.4293  140.8296  170.7395 H       1  UNL1        0.1495
@<TRIPOS>BOND
     1    22    23    1
     2    23    21    1
     3    21    24    1
     4    24    25    1
     5    21    20    1
     6    20    19    1
     7    19    18    1
     8    18    10    1
     9    10    11   ar
    10    11    12   ar
    11    12     1    1
    12     1     2    2
    13     2     3    1
    14     3    28    1
    15    28    29    1
    16    29    30    1
    17    30    31    2
    18    30    32   am
    19    32    33    1
    20     3     4    2
    21     4     5    1
    22     5     6    2
    23     6     7    1
    24     7     8    2
    25     8    26    1
    26    26    27    3
    27     8     9    1
    28    12    13   ar
    29    13    14    1
    30    13    15   ar
    31    15    16   ar
    32    16    17    1
    33    16    10   ar
    34     9     1    1
    35     9     5    1
    36    32    34    1
@<TRIPOS>MOLECULE
*****
 34 36 0 0 0
SMALL
GASTEIGER

@<TRIPOS>ATOM
      1 C         140.6391  141.4867  166.5898 C.2     1  UNL1        0.0806
      2 N         140.6262  141.7061  168.0736 N.2     1  UNL1       -0.2021
      3 C         139.7997  140.8183  168.9559 C.2     1  UNL1        0.3040
      4 N         138.9859  139.7109  168.3544 N.2     1  UNL1       -0.0109
      5 C         138.9988  139.4915  166.8706 C.2     1  UNL1        0.3639
      6 N         138.3036  138.4887  165.9983 N.2     1  UNL1       -0.0335
      7 C         138.7005  138.7568  164.5768 C.2     1  UNL1        0.2424
      8 C         139.6411  139.9253  164.5706 C.2     1  UNL1        0.1101
      9 C         139.8254  140.3794  165.9883 C.3     1  UNL1        0.1876
     10 C         143.7481  142.9668  164.6166 C.ar    1  UNL1        0.1491
     11 C         142.9215  142.0790  165.4989 C.ar    1  UNL1        0.0398
     12 C         141.4657  142.3746  165.7075 C.ar    1  UNL1        0.0283
     13 C         140.8366  143.5580  165.0339 C.ar    1  UNL1        0.0598
     14 CL        139.3809  143.8535  165.2426 Cl      1  UNL1       -0.0822
     15 C         141.6633  144.4458  164.1516 C.ar    1  UNL1        0.0259
     16 C         143.1190  144.1503  163.9429 C.ar    1  UNL1        0.0924
     17 CL        143.9455  145.0381  163.0607 Cl      1  UNL1       -0.0791
     18 O         145.2038  142.6713  164.4079 O.3     1  UNL1       -0.4731
     19 C         145.6328  141.7672  163.2906 C.3     1  UNL1        0.2227
     20 C         144.6311  140.8720  162.6234 C.3     1  UNL1        0.1200
     21 N         144.3040  139.5357  163.2213 N.3     1  UNL1       -0.2696
     22 C         143.9873  137.8600  161.2613 C.3     1  UNL1        0.0188
     23 C         143.4423  138.5672  162.4666 C.3     1  UNL1        0.0722
     24 C         144.8385  139.1680  164.5736 C.3     1  UNL1        0.0722
     25 C         143.9046  138.6838  165.6430 C.3     1  UNL1        0.0188
     26 C         140.2843  140.5330  163.3595 C.1     1  UNL1        0.1009
     27 N         140.9275  141.1407  162.1483 N.1     1  UNL1       -0.1910
     28 S         139.7868  141.0377  170.4398 S.3     1  UNL1       -0.0383
     29 C         140.9585  140.6075  171.2717 C.3     1  UNL1        0.1520
     30 C         142.3554  140.8469  170.7805 C.2     1  UNL1        0.2340
     31 O         143.2983  139.6930  170.6092 O.2     1  UNL1       -0.2741
     32 N         142.8094  142.2403  170.4605 N.am    1  UNL1       -0.3019
     33 C         144.2064  142.4796  169.9692 C.3     1  UNL1        0.1107
     34 H         142.1906  142.9977  170.5729 H       1  UNL1        0.1495
@<TRIPOS>BOND
     1    22    23    1
     2    23    21    1
     3    21    24    1
     4    24    25    1
     5    21    20    1
     6    20    19    1
     7    19    18    1
     8    18    10    1
     9    10    11   ar
    10    11    12   ar
    11    12     1    1
    12     1     2    2
    13     2     3    1
    14     3    28    1
    15    28    29    1
    16    29    30    1
    17    30    31    2
    18    30    32   am
    19    32    33    1
    20     3     4    2
    21     4     5    1
    22     5     6    2
    23     6     7    1
    24     7     8    2
    25     8    26    1
    26    26    27    3
    27     8     9    1
    28    12    13   ar
    29    13    14    1
    30    13    15   ar
    31    15    16   ar
    32    16    17    1
    33    16    10   ar
    34     9     1    1
    35     9     5    1
    36    32    34    1
@<TRIPOS>MOLECULE
*****
 34 36 0 0 0
SMALL
GASTEIGER

@<TRIPOS>ATOM
      1 C         140.6793  140.8480  166.0630 C.2     1  UNL1        0.0806
      2 N         140.4996  141.1580  167.5195 N.2     1  UNL1       -0.2021
      3 C         139.5706  140.3271  168.3540 C.2     1  UNL1        0.3040
      4 N         138.8211  139.1862  167.7320 N.2     1  UNL1       -0.0109
      5 C         139.0008  138.8763  166.2754 C.2     1  UNL1        0.3639
      6 N         138.4009  137.8229  165.3920 N.2     1  UNL1       -0.0335
      7 C         138.9592  138.0028  164.0115 C.2     1  UNL1        0.2424
      8 C         139.9042  139.1674  164.0417 C.2     1  UNL1        0.1101
      9 C         139.9299  139.7072  165.4409 C.3     1  UNL1        0.1876
     10 C         142.0532  143.7913  163.7827 C.ar    1  UNL1        0.1491
     11 C         141.1242  142.9604  164.6171 C.ar    1  UNL1        0.0398
     12 C         141.6084  141.6789  165.2284 C.ar    1  UNL1        0.0283
     13 C         143.0216  141.2285  165.0051 C.ar    1  UNL1        0.0598
     14 CL        143.5057  139.9471  165.6164 Cl      1  UNL1       -0.0822
     15 C         143.9506  142.0595  164.1706 C.ar    1  UNL1        0.0259
     16 C         143.4665  143.3408  163.5593 C.ar    1  UNL1        0.0924
     17 CL        144.3954  144.1717  162.7249 Cl      1  UNL1       -0.0791
     18 O         141.5690  145.0727  163.1714 O.3     1  UNL1       -0.4731
     19 C         140.4608  145.0498  162.1608 C.3     1  UNL1        0.2227
     20 C         139.0439  145.2797  162.5962 C.3     1  UNL1        0.1200
     21 N         138.2573  144.1601  163.2110 N.3     1  UNL1       -0.2696
     22 C         137.3551  141.7264  163.0957 C.3     1  UNL1        0.0188
     23 C         138.0088  142.9023  162.4324 C.3     1  UNL1        0.0722
     24 C         137.7192  144.2983  164.6042 C.3     1  UNL1        0.0722
     25 C         138.5243  145.0080  165.6523 C.3     1  UNL1        0.0188
     26 C         140.6861  139.6987  162.8771 C.1     1  UNL1        0.1009
     27 N         141.4681  140.2301  161.7125 N.1     1  UNL1       -0.1910
     28 S         139.3909  140.6371  169.8107 S.3     1  UNL1       -0.0383
     29 C         140.5161  140.3968  170.7730 C.3     1  UNL1        0.1520
     30 C         141.6598  141.3645  170.8464 C.2     1  UNL1        0.2340
     31 O         141.7452  142.3399  171.9827 O.2     1  UNL1       -0.2741
     32 N         142.7181  141.3569  169.7834 N.am    1  UNL1       -0.3019
     33 C         143.8619  142.3247  169.8568 C.3     1  UNL1        0.1107
     34 H         142.6621  140.7167  169.0375 H       1  UNL1        0.1495
@<TRIPOS>BOND
     1    22    23    1
     2    23    21    1
     3    21    24    1
     4    24    25    1
     5    21    20    1
     6    20    19    1
     7    19    18    1
     8    18    10    1
     9    10    11   ar
    10    11    12   ar
    11    12     1    1
    12     1     2    2
    13     2     3    1
    14     3    28    1
    15    28    29    1
    16    29    30    1
    17    30    31    2
    18    30    32   am
    19    32    33    1
    20     3     4    2
    21     4     5    1
    22     5     6    2
    23     6     7    1
    24     7     8    2
    25     8    26    1
    26    26    27    3
    27     8     9    1
    28    12    13   ar
    29    13    14    1
    30    13    15   ar
    31    15    16   ar
    32    16    17    1
    33    16    10   ar
    34     9     1    1
    35     9     5    1
    36    32    34    1
@<TRIPOS>MOLECULE
*****
 34 36 0 0 0
SMALL
GASTEIGER

@<TRIPOS>ATOM
      1 C         142.2079  141.4446  166.1102 C.2     1  UNL1        0.0806
      2 N         142.3679  141.6495  167.5875 N.2     1  UNL1       -0.2021
      3 C         142.7756  140.5026  168.4639 C.2     1  UNL1        0.3040
      4 N         143.0234  139.1507  167.8632 N.2     1  UNL1       -0.0109
      5 C         142.8635  138.9458  166.3859 C.2     1  UNL1        0.3639
      6 N         143.0378  137.7365  165.5157 N.2     1  UNL1       -0.0335
      7 C         142.7378  138.1361  164.1014 C.2     1  UNL1        0.2424
      8 C         142.3780  139.5923  164.0975 C.2     1  UNL1        0.1101
      9 C         142.4558  140.0927  165.5094 C.3     1  UNL1        0.1876
     10 C         139.9458  143.9469  164.0195 C.ar    1  UNL1        0.1491
     11 C         140.3536  142.8000  164.8959 C.ar    1  UNL1        0.0398
     12 C         141.8002  142.5916  165.2337 C.ar    1  UNL1        0.0283
     13 C         142.8389  143.5301  164.6951 C.ar    1  UNL1        0.0598
     14 CL        144.2854  143.3216  165.0329 Cl      1  UNL1       -0.0822
     15 C         142.4311  144.6771  163.8186 C.ar    1  UNL1        0.0259
     16 C         140.9845  144.8855  163.4807 C.ar    1  UNL1        0.0924
     17 CL        140.5768  146.0324  162.6043 Cl      1  UNL1       -0.0791
     18 O         138.4993  144.1554  163.6817 O.3     1  UNL1       -0.4731
     19 C         137.7936  143.1891  162.7770 C.3     1  UNL1        0.2227
     20 C         137.3549  141.8541  163.3016 C.3     1  UNL1        0.1200
     21 N         138.0883  140.6105  162.8944 N.3     1  UNL1       -0.2696
     22 C         138.1928  139.8465  165.3754 C.3     1  UNL1        0.0188
     23 C         138.5841  139.6560  163.9399 C.3     1  UNL1        0.0722
     24 C         138.3260  140.3215  161.4419 C.3     1  UNL1        0.0722
     25 C         137.2524  139.6703  160.6213 C.3     1  UNL1        0.0188
     26 C         142.0059  140.4053  162.8931 C.1     1  UNL1        0.1009
     27 N         141.6338  141.2184  161.6887 N.1     1  UNL1       -0.1910
     28 S         142.9355  140.7076  169.9413 S.3     1  UNL1       -0.0383
     29 C         141.7247  140.7818  170.8236 C.3     1  UNL1        0.1520
     30 C         141.0068  142.0865  171.0037 C.2     1  UNL1        0.2340
     31 O         140.2809  142.3725  172.2848 O.2     1  UNL1       -0.2741
     32 N         141.0146  143.1051  169.9026 N.am    1  UNL1       -0.3019
     33 C         140.2966  144.4098  170.0827 C.3     1  UNL1        0.1107
     34 H         141.4910  142.9174  169.0617 H       1  UNL1        0.1495
@<TRIPOS>BOND
     1    22    23    1
     2    23    21    1
     3    21    24    1
     4    24    25    1
     5    21    20    1
     6    20    19    1
     7    19    18    1
     8    18    10    1
     9    10    11   ar
    10    11    12   ar
    11    12     1    1
    12     1     2    2
    13     2     3    1
    14     3    28    1
    15    28    29    1
    16    29    30    1
    17    30    31    2
    18    30    32   am
    19    32    33    1
    20     3     4    2
    21     4     5    1
    22     5     6    2
    23     6     7    1
    24     7     8    2
    25     8    26    1
    26    26    27    3
    27     8     9    1
    28    12    13   ar
    29    13    14    1
    30    13    15   ar
    31    15    16   ar
    32    16    17    1
    33    16    10   ar
    34     9     1    1
    35     9     5    1
    36    32    34    1
@<TRIPOS>MOLECULE
*****
 34 36 0 0 0
SMALL
GASTEIGER

@<TRIPOS>ATOM
      1 C         140.1815  142.1744  166.1679 C.2     1  UNL1        0.0806
      2 N         140.6152  142.7975  167.4616 N.2     1  UNL1       -0.2021
      3 C         140.3496  142.0937  168.7592 C.2     1  UNL1        0.3040
      4 N         139.6502  140.7667  168.7633 N.2     1  UNL1       -0.0109
      5 C         139.2165  140.1435  167.4696 C.2     1  UNL1        0.3639
      6 N         138.5123  138.8552  167.1625 N.2     1  UNL1       -0.0335
      7 C         138.3427  138.7629  165.6750 C.2     1  UNL1        0.2424
      8 C         138.9421  139.9941  165.0628 C.2     1  UNL1        0.1101
      9 C         139.4822  140.8474  166.1719 C.3     1  UNL1        0.1876
     10 C         142.0331  143.4085  162.8818 C.ar    1  UNL1        0.1491
     11 C         141.7674  142.7047  164.1794 C.ar    1  UNL1        0.0398
     12 C         140.4472  142.8783  164.8702 C.ar    1  UNL1        0.0283
     13 C         139.3928  143.7556  164.2633 C.ar    1  UNL1        0.0598
     14 CL        138.0727  143.9292  164.9541 Cl      1  UNL1       -0.0822
     15 C         139.6585  144.4595  162.9656 C.ar    1  UNL1        0.0259
     16 C         140.9786  144.2860  162.2748 C.ar    1  UNL1        0.0924
     17 CL        141.2443  144.9898  160.9772 Cl      1  UNL1       -0.0791
     18 O         143.3532  143.2350  162.1910 O.3     1  UNL1       -0.4731
     19 C         144.5807  142.9108  162.9897 C.3     1  UNL1        0.2227
     20 C         145.3284  141.6363  162.7316 C.3     1  UNL1        0.1200
     21 N         144.6672  140.3141  162.9863 N.3     1  UNL1       -0.2696
     22 C         143.9288  138.2284  161.6245 C.3     1  UNL1        0.0188
     23 C         143.8035  139.6917  161.9297 C.3     1  UNL1        0.0722
     24 C         144.8698  139.6145  164.2975 C.3     1  UNL1        0.0722
     25 C         143.7066  139.3978  165.2196 C.3     1  UNL1        0.0188
     26 C         138.9926  140.3155  163.5985 C.1     1  UNL1        0.1009
     27 N         139.0431  140.6370  162.1342 N.1     1  UNL1       -0.1910
     28 S         140.7833  142.7169  170.0530 S.3     1  UNL1       -0.0383
     29 C         141.5333  141.9012  171.0640 C.3     1  UNL1        0.1520
     30 C         142.4227  140.7807  170.6131 C.2     1  UNL1        0.2340
     31 O         143.8158  141.0730  170.1400 O.2     1  UNL1       -0.2741
     32 N         141.9190  139.3680  170.6351 N.am    1  UNL1       -0.3019
     33 C         142.8086  138.2475  170.1841 C.3     1  UNL1        0.1107
     34 H         141.0046  139.1761  170.9456 H       1  UNL1        0.1495
@<TRIPOS>BOND
     1    22    23    1
     2    23    21    1
     3    21    24    1
     4    24    25    1
     5    21    20    1
     6    20    19    1
     7    19    18    1
     8    18    10    1
     9    10    11   ar
    10    11    12   ar
    11    12     1    1
    12     1     2    2
    13     2     3    1
    14     3    28    1
    15    28    29    1
    16    29    30    1
    17    30    31    2
    18    30    32   am
    19    32    33    1
    20     3     4    2
    21     4     5    1
    22     5     6    2
    23     6     7    1
    24     7     8    2
    25     8    26    1
    26    26    27    3
    27     8     9    1
    28    12    13   ar
    29    13    14    1
    30    13    15   ar
    31    15    16   ar
    32    16    17    1
    33    16    10   ar
    34     9     1    1
    35     9     5    1
    36    32    34    1
@<TRIPOS>MOLECULE
*****
 34 36 0 0 0
SMALL
GASTEIGER

@<TRIPOS>ATOM
      1 C         142.1769  141.2151  165.8102 C.2     1  UNL1        0.0806
      2 N         142.2023  141.2284  167.3099 N.2     1  UNL1       -0.2021
      3 C         143.1433  142.1432  168.0360 C.2     1  UNL1        0.3040
      4 N         144.0591  143.0449  167.2624 N.2     1  UNL1       -0.0109
      5 C         144.0337  143.0317  165.7627 C.2     1  UNL1        0.3639
      6 N         144.8135  143.8022  164.7388 N.2     1  UNL1       -0.0335
      7 C         144.3542  143.3635  163.3799 C.2     1  UNL1        0.2424
      8 C         143.2907  142.3218  163.5639 C.2     1  UNL1        0.1101
      9 C         143.0926  142.1167  165.0366 C.3     1  UNL1        0.1876
     10 C         138.9407  139.8789  163.9416 C.ar    1  UNL1        0.1491
     11 C         139.8818  140.7938  164.6676 C.ar    1  UNL1        0.0398
     12 C         141.2358  140.3002  165.0841 C.ar    1  UNL1        0.0283
     13 C         141.6485  138.8917  164.7744 C.ar    1  UNL1        0.0598
     14 CL        143.0024  138.3982  165.1909 Cl      1  UNL1       -0.0822
     15 C         140.7073  137.9769  164.0483 C.ar    1  UNL1        0.0259
     16 C         139.3534  138.4704  163.6319 C.ar    1  UNL1        0.0924
     17 CL        138.4123  137.5556  162.9058 Cl      1  UNL1       -0.0791
     18 O         137.5868  140.3725  163.5251 O.3     1  UNL1       -0.4731
     19 C         137.4410  141.2077  162.2877 C.3     1  UNL1        0.2227
     20 C         138.5936  142.0351  161.8013 C.3     1  UNL1        0.1200
     21 N         138.6789  143.4885  162.1629 N.3     1  UNL1       -0.2696
     22 C         137.9296  144.0227  164.5925 C.3     1  UNL1        0.0188
     23 C         137.6837  144.0842  163.1140 C.3     1  UNL1        0.0722
     24 C         139.7592  144.3459  161.5734 C.3     1  UNL1        0.0722
     25 C         139.9277  145.7631  162.0352 C.3     1  UNL1        0.0188
     26 C         142.5545  141.6102  162.4677 C.1     1  UNL1        0.1009
     27 N         141.8183  140.8986  161.3715 N.1     1  UNL1       -0.1910
     28 S         143.1687  142.1565  169.5358 S.3     1  UNL1       -0.0383
     29 C         142.0744  142.8427  170.2984 C.3     1  UNL1        0.1520
     30 C         140.8436  142.0813  170.6925 C.2     1  UNL1        0.2340
     31 O         140.3385  142.1505  172.1032 O.2     1  UNL1       -0.2741
     32 N         140.1178  141.2508  169.6758 N.am    1  UNL1       -0.3019
     33 C         138.8869  140.4894  170.0701 C.3     1  UNL1        0.1107
     34 H         140.4493  141.2054  168.7499 H       1  UNL1        0.1495
@<TRIPOS>BOND
     1    22    23    1
     2    23    21    1
     3    21    24    1
     4    24    25    1
     5    21    20    1
     6    20    19    1
     7    19    18    1
     8    18    10    1
     9    10    11   ar
    10    11    12   ar
    11    12     1    1
    12     1     2    2
    13     2     3    1
    14     3    28    1
    15    28    29    1
    16    29    30    1
    17    30    31    2
    18    30    32   am
    19    32    33    1
    20     3     4    2
    21     4     5    1
    22     5     6    2
    23     6     7    1
    24     7     8    2
    25     8    26    1
    26    26    27    3
    27     8     9    1
    28    12    13   ar
    29    13    14    1
    30    13    15   ar
    31    15    16   ar
    32    16    17    1
    33    16    10   ar
    34     9     1    1
    35     9     5    1
    36    32    34    1
@<TRIPOS>MOLECULE
*****
 34 36 0 0 0
SMALL
GASTEIGER

@<TRIPOS>ATOM
      1 C         141.1796  140.8763  165.5294 C.2     1  UNL1        0.0806
      2 N         142.3645  141.6536  165.0376 N.2     1  UNL1       -0.2021
      3 C         143.2721  142.3370  166.0168 C.2     1  UNL1        0.3040
      4 N         142.9949  142.2433  167.4881 N.2     1  UNL1       -0.0109
      5 C         141.8101  141.4660  167.9799 C.2     1  UNL1        0.3639
      6 N         141.2877  141.1989  169.3604 N.2     1  UNL1       -0.0335
      7 C         140.0573  140.3504  169.2343 C.2     1  UNL1        0.2424
      8 C         139.8191  140.0930  167.7758 C.2     1  UNL1        0.1101
      9 C         140.9024  140.7825  167.0006 C.3     1  UNL1        0.1876
     10 C         138.3581  140.3086  162.7969 C.ar    1  UNL1        0.1491
     11 C         139.2657  140.9920  163.7762 C.ar    1  UNL1        0.0398
     12 C         140.2720  140.1928  164.5501 C.ar    1  UNL1        0.0283
     13 C         140.3706  138.7103  164.3446 C.ar    1  UNL1        0.0598
     14 CL        141.3769  137.9112  165.1184 Cl      1  UNL1       -0.0822
     15 C         139.4630  138.0269  163.3652 C.ar    1  UNL1        0.0259
     16 C         138.4567  138.8260  162.5914 C.ar    1  UNL1        0.0924
     17 CL        137.5491  138.1425  161.6121 Cl      1  UNL1       -0.0791
     18 O         137.3518  141.1077  162.0231 O.3     1  UNL1       -0.4731
     19 C         137.8120  142.1370  161.0338 C.3     1  UNL1        0.2227
     20 C         138.9622  143.0391  161.3703 C.3     1  UNL1        0.1200
     21 N         138.7323  144.2723  162.1929 N.3     1  UNL1       -0.2696
     22 C         140.9634  145.5066  162.6914 C.3     1  UNL1        0.0188
     23 C         139.6232  145.4665  162.0190 C.3     1  UNL1        0.0722
     24 C         137.6118  144.3112  163.1891 C.3     1  UNL1        0.0722
     25 C         137.9017  144.1419  164.6511 C.3     1  UNL1        0.0188
     26 C         138.6950  139.2876  167.1947 C.1     1  UNL1        0.1009
     27 N         137.5709  138.4822  166.6136 N.1     1  UNL1       -0.1910
     28 S         144.4570  143.1143  165.5249 S.3     1  UNL1       -0.0383
     29 C         145.0324  142.8271  164.1697 C.3     1  UNL1        0.1520
     30 C         144.3266  143.3103  162.9375 C.2     1  UNL1        0.2340
     31 O         144.4492  144.7449  162.5169 O.2     1  UNL1       -0.2741
     32 N         143.4982  142.3589  162.1259 N.am    1  UNL1       -0.3019
     33 C         142.7924  142.8422  160.8937 C.3     1  UNL1        0.1107
     34 H         143.4177  141.4173  162.4020 H       1  UNL1        0.1495
@<TRIPOS>BOND
     1    22    23    1
     2    23    21    1
     3    21    24    1
     4    24    25    1
     5    21    20    1
     6    20    19    1
     7    19    18    1
     8    18    10    1
     9    10    11   ar
    10    11    12   ar
    11    12     1    1
    12     1     2    2
    13     2     3    1
    14     3    28    1
    15    28    29    1
    16    29    30    1
    17    30    31    2
    18    30    32   am
    19    32    33    1
    20     3     4    2
    21     4     5    1
    22     5     6    2
    23     6     7    1
    24     7     8    2
    25     8    26    1
    26    26    27    3
    27     8     9    1
    28    12    13   ar
    29    13    14    1
    30    13    15   ar
    31    15    16   ar
    32    16    17    1
    33    16    10   ar
    34     9     1    1
    35     9     5    1
    36    32    34    1
@<TRIPOS>MOLECULE
*****
 34 36 0 0 0
SMALL
GASTEIGER

@<TRIPOS>ATOM
      1 C         139.6612  141.5271  165.0152 C.2     1  UNL1        0.0806
      2 N         139.9299  141.6973  166.4811 N.2     1  UNL1       -0.2021
      3 C         139.8572  140.5135  167.3993 C.2     1  UNL1        0.3040
      4 N         139.5158  139.1594  166.8517 N.2     1  UNL1       -0.0109
      5 C         139.2471  138.9892  165.3858 C.2     1  UNL1        0.3639
      6 N         138.8896  137.7863  164.5640 N.2     1  UNL1       -0.0335
      7 C         138.7413  138.2268  163.1379 C.2     1  UNL1        0.2424
      8 C         139.0072  139.7019  163.0782 C.2     1  UNL1        0.1101
      9 C         139.3197  140.1730  164.4676 C.3     1  UNL1        0.1876
     10 C         141.0889  144.2168  162.4703 C.ar    1  UNL1        0.1491
     11 C         141.0162  143.0330  163.3884 C.ar    1  UNL1        0.0398
     12 C         139.7338  142.7110  164.0970 C.ar    1  UNL1        0.0283
     13 C         138.5242  143.5728  163.8872 C.ar    1  UNL1        0.0598
     14 CL        137.2419  143.2508  164.5957 Cl      1  UNL1       -0.0822
     15 C         138.5970  144.7567  162.9689 C.ar    1  UNL1        0.0259
     16 C         139.8793  145.0787  162.2604 C.ar    1  UNL1        0.0924
     17 CL        139.9520  146.2625  161.3422 Cl      1  UNL1       -0.0791
     18 O         142.3712  144.5389  161.7618 O.3     1  UNL1       -0.4731
     19 C         143.4040  143.4704  161.5575 C.3     1  UNL1        0.2227
     20 C         144.5676  143.3624  162.4978 C.3     1  UNL1        0.1200
     21 N         144.6216  142.2468  163.4992 N.3     1  UNL1       -0.2696
     22 C         144.9976  139.7362  164.0517 C.3     1  UNL1        0.0188
     23 C         144.9749  140.8580  163.0562 C.3     1  UNL1        0.0722
     24 C         144.3225  142.5201  164.9433 C.3     1  UNL1        0.0722
     25 C         144.6569  143.8557  165.5389 C.3     1  UNL1        0.0188
     26 C         138.9674  140.5558  161.8457 C.1     1  UNL1        0.1009
     27 N         138.9276  141.4097  160.6131 N.1     1  UNL1       -0.1910
     28 S         140.1260  140.6838  168.8653 S.3     1  UNL1       -0.0383
     29 C         141.1702  139.8435  169.5388 C.3     1  UNL1        0.1520
     30 C         142.4844  140.4516  169.9302 C.2     1  UNL1        0.2340
     31 O         143.4699  139.6551  170.7329 O.2     1  UNL1       -0.2741
     32 N         142.8131  141.8561  169.5187 N.am    1  UNL1       -0.3019
     33 C         144.1274  142.4640  169.9101 C.3     1  UNL1        0.1107
     34 H         142.1664  142.3789  168.9918 H       1  UNL1        0.1495
@<TRIPOS>BOND
     1    22    23    1
     2    23    21    1
     3    21    24    1
     4    24    25    1
     5    21    20    1
     6    20    19    1
     7    19    18    1
     8    18    10    1
     9    10    11   ar
    10    11    12   ar
    11    12     1    1
    12     1     2    2
    13     2     3    1
    14     3    28    1
    15    28    29    1
    16    29    30    1
    17    30    31    2
    18    30    32   am
    19    32    33    1
    20     3     4    2
    21     4     5    1
    22     5     6    2
    23     6     7    1
    24     7     8    2
    25     8    26    1
    26    26    27    3
    27     8     9    1
    28    12    13   ar
    29    13    14    1
    30    13    15   ar
    31    15    16   ar
    32    16    17    1
    33    16    10   ar
    34     9     1    1
    35     9     5    1
    36    32    34    1
@<TRIPOS>MOLECULE
*****
 34 36 0 0 0
SMALL
GASTEIGER

@<TRIPOS>ATOM
      1 C         140.7821  140.3436  165.8431 C.2     1  UNL1        0.0806
      2 N         141.0601  141.3528  166.9174 N.2     1  UNL1       -0.2021
      3 C         140.2596  141.3378  168.1858 C.2     1  UNL1        0.3040
      4 N         139.1810  140.3136  168.3800 N.2     1  UNL1       -0.0109
      5 C         138.9031  139.3043  167.3057 C.2     1  UNL1        0.3639
      6 N         137.9108  138.1831  167.2144 N.2     1  UNL1       -0.0335
      7 C         138.0981  137.5052  165.8895 C.2     1  UNL1        0.2424
      8 C         139.2061  138.2074  165.1620 C.2     1  UNL1        0.1101
      9 C         139.7036  139.3193  166.0372 C.3     1  UNL1        0.1876
     10 C         141.9727  141.2640  162.1709 C.ar    1  UNL1        0.1491
     11 C         141.1723  141.2489  163.4393 C.ar    1  UNL1        0.0398
     12 C         141.5826  140.3586  164.5747 C.ar    1  UNL1        0.0283
     13 C         142.7935  139.4834  164.4416 C.ar    1  UNL1        0.0598
     14 CL        143.2038  138.5931  165.5769 Cl      1  UNL1       -0.0822
     15 C         143.5940  139.4984  163.1731 C.ar    1  UNL1        0.0259
     16 C         143.1837  140.3887  162.0377 C.ar    1  UNL1        0.0924
     17 CL        143.9841  140.4037  160.7694 Cl      1  UNL1       -0.0791
     18 O         141.5624  142.1542  161.0355 O.3     1  UNL1       -0.4731
     19 C         141.0487  143.5358  161.3137 C.3     1  UNL1        0.2227
     20 C         139.6202  143.8797  161.0117 C.3     1  UNL1        0.1200
     21 N         138.5301  143.4422  161.9447 N.3     1  UNL1       -0.2696
     22 C         138.8818  144.6587  164.2132 C.3     1  UNL1        0.0188
     23 C         138.0340  144.3760  163.0086 C.3     1  UNL1        0.0722
     24 C         137.9363  142.0710  161.8138 C.3     1  UNL1        0.0722
     25 C         137.4224  141.3571  163.0289 C.3     1  UNL1        0.0188
     26 C         139.7254  137.8588  163.7986 C.1     1  UNL1        0.1009
     27 N         140.2447  137.5103  162.4352 N.1     1  UNL1       -0.1910
     28 S         140.5376  142.3471  169.2602 S.3     1  UNL1       -0.0383
     29 C         141.4251  141.9881  170.4150 C.3     1  UNL1        0.1520
     30 C         142.3583  140.8186  170.3084 C.2     1  UNL1        0.2340
     31 O         143.8315  141.0474  170.1428 O.2     1  UNL1       -0.2741
     32 N         141.8184  139.4204  170.3675 N.am    1  UNL1       -0.3019
     33 C         142.7517  138.2510  170.2610 C.3     1  UNL1        0.1107
     34 H         140.8515  139.2703  170.4763 H       1  UNL1        0.1495
@<TRIPOS>BOND
     1    22    23    1
     2    23    21    1
     3    21    24    1
     4    24    25    1
     5    21    20    1
     6    20    19    1
     7    19    18    1
     8    18    10    1
     9    10    11   ar
    10    11    12   ar
    11    12     1    1
    12     1     2    2
    13     2     3    1
    14     3    28    1
    15    28    29    1
    16    29    30    1
    17    30    31    2
    18    30    32   am
    19    32    33    1
    20     3     4    2
    21     4     5    1
    22     5     6    2
    23     6     7    1
    24     7     8    2
    25     8    26    1
    26    26    27    3
    27     8     9    1
    28    12    13   ar
    29    13    14    1
    30    13    15   ar
    31    15    16   ar
    32    16    17    1
    33    16    10   ar
    34     9     1    1
    35     9     5    1
    36    32    34    1
