@<TRIPOS>MOLECULE
*****
 37 41 0 0 0
SMALL
GASTEIGER

@<TRIPOS>ATOM
      1 C         137.9216  140.9488  163.3530 C.2     1  UNL1        0.2494
      2 O         136.6991  141.7994  163.1744 O.2     1  UNL1       -0.2699
      3 N         138.5717  140.3106  162.1614 N.am    1  UNL1       -0.2660
      4 C         139.7943  139.4599  162.3399 C.3     1  UNL1        0.1160
      5 C         140.4444  138.8216  161.1484 C.3     1  UNL1        0.1197
      6 N         139.8721  139.0341  159.7782 N.am    1  UNL1       -0.2555
      7 C         138.6497  139.8847  159.5996 C.2     1  UNL1        0.2497
      8 O         138.0774  140.0971  158.2294 O.2     1  UNL1       -0.2727
      9 C         137.9994  140.5230  160.7912 C.3     1  UNL1        0.1799
     10 C         139.6384  140.3115  167.4635 C.ar    1  UNL1        0.1057
     11 C         138.6844  139.3088  166.8855 C.ar    1  UNL1        0.0185
     12 C         138.1121  139.5212  165.5153 C.ar    1  UNL1        0.0058
     13 C         138.4939  140.7364  164.7231 C.ar    1  UNL1        0.0537
     14 C         139.4479  141.7391  165.3012 C.ar    1  UNL1        0.0058
     15 C         140.0202  141.5267  166.6713 C.ar    1  UNL1        0.0185
     16 C         140.7830  139.8867  170.2038 C.3     1  UNL1        0.1816
     17 S         140.2107  140.0991  168.8336 S.O2    1  UNL1        0.0104
     18 O         141.5914  140.3228  168.2916 O.2     1  UNL1       -0.1686
     19 O         138.8301  139.8754  169.3756 O.2     1  UNL1       -0.1686
     20 C         140.5224  138.3958  158.5866 C.ar    1  UNL1        0.0541
     21 C         139.6811  137.7143  157.5485 C.ar    1  UNL1        0.0180
     22 C         140.3314  137.0760  156.3569 C.ar    1  UNL1        0.0382
     23 C         141.8229  137.1193  156.2035 C.ar    1  UNL1        0.1385
     24 C         142.6641  137.8008  157.2417 C.ar    1  UNL1        0.0382
     25 C         142.0139  138.4391  158.4332 C.ar    1  UNL1        0.0180
     26 O         142.4731  136.4810  155.0119 O.3     1  UNL1       -0.4791
     27 C         142.9022  135.0450  155.0711 C.3     1  UNL1        0.1687
     28 C         142.4628  134.0863  154.0043 C.3     1  UNL1        0.0609
     29 C         142.8919  132.6503  154.0636 C.3     1  UNL1        0.0758
     30 N         143.7603  132.1727  155.1896 N.3     1  UNL1       -0.2737
     31 C         144.1996  133.1313  156.2564 C.3     1  UNL1        0.0758
     32 C         143.7705  134.5675  156.1971 C.3     1  UNL1        0.0609
     33 C         144.1893  130.7366  155.2488 C.3     1  UNL1        0.0575
     34 C         144.5384  129.8716  154.0742 C.3     1  UNL1        0.0160
     35 C         144.9094  128.5138  154.5924 C.3     1  UNL1        0.0014
     36 C         144.7896  128.5396  156.0875 C.3     1  UNL1        0.0014
     37 C         144.3445  129.9134  156.4931 C.3     1  UNL1        0.0160
@<TRIPOS>BOND
     1    16    17    1
     2    17    18    2
     3    17    19    2
     4    17    10    1
     5    10    11   ar
     6    11    12   ar
     7    12    13   ar
     8    13     1    1
     9     1     2    2
    10     1     3   am
    11     3     4    1
    12     4     5    1
    13     5     6    1
    14     6    20    1
    15    20    21   ar
    16    21    22   ar
    17    22    23   ar
    18    23    26    1
    19    26    27    1
    20    27    28    1
    21    28    29    1
    22    29    30    1
    23    30    33    1
    24    33    34    1
    25    34    35    1
    26    35    36    1
    27    36    37    1
    28    30    31    1
    29    31    32    1
    30    23    24   ar
    31    24    25   ar
    32     6     7   am
    33     7     8    2
    34     7     9    1
    35    13    14   ar
    36    14    15   ar
    37    15    10   ar
    38     9     3    1
    39    25    20   ar
    40    32    27    1
    41    37    33    1
@<TRIPOS>MOLECULE
*****
 37 41 0 0 0
SMALL
GASTEIGER

@<TRIPOS>ATOM
      1 C         141.5464  143.4921  164.1065 C.2     1  UNL1        0.2494
      2 O         141.4230  144.9704  163.8841 O.2     1  UNL1       -0.2699
      3 N         141.5684  142.5566  162.9343 N.am    1  UNL1       -0.2660
      4 C         141.6918  141.0783  163.1566 C.3     1  UNL1        0.1160
      5 C         141.7138  140.1428  161.9844 C.3     1  UNL1        0.1197
      6 N         141.6124  140.6855  160.5897 N.am    1  UNL1       -0.2555
      7 C         141.4891  142.1637  160.3673 C.2     1  UNL1        0.2497
      8 O         141.3878  142.7065  158.9726 O.2     1  UNL1       -0.2727
      9 C         141.4671  143.0993  161.5396 C.3     1  UNL1        0.1799
     10 C         141.8504  141.8639  168.2906 C.ar    1  UNL1        0.1057
     11 C         140.5090  142.2130  167.7173 C.ar    1  UNL1        0.0185
     12 C         140.4076  142.7557  166.3226 C.ar    1  UNL1        0.0058
     13 C         141.6477  142.9494  165.5012 C.ar    1  UNL1        0.0537
     14 C         142.9891  142.6003  166.0746 C.ar    1  UNL1        0.0058
     15 C         143.0904  142.0576  167.4693 C.ar    1  UNL1        0.0185
     16 C         142.0530  140.7784  171.0800 C.3     1  UNL1        0.1816
     17 S         141.9517  141.3212  169.6853 S.O2    1  UNL1        0.0104
     18 O         143.0938  140.4459  169.2617 O.2     1  UNL1       -0.1686
     19 O         140.8095  142.1964  170.1089 O.2     1  UNL1       -0.1686
     20 C         141.6345  139.7499  159.4174 C.ar    1  UNL1        0.0541
     21 C         142.8925  139.5776  158.6188 C.ar    1  UNL1        0.0180
     22 C         142.9144  138.6420  157.4466 C.ar    1  UNL1        0.0382
     23 C         141.6784  137.8788  157.0729 C.ar    1  UNL1        0.1385
     24 C         140.4204  138.0511  157.8714 C.ar    1  UNL1        0.0382
     25 C         140.3984  138.9866  159.0436 C.ar    1  UNL1        0.0180
     26 O         141.7004  136.9432  155.9006 O.3     1  UNL1       -0.4791
     27 C         142.0606  135.5006  156.0989 C.3     1  UNL1        0.1687
     28 C         141.3873  134.4399  155.2795 C.3     1  UNL1        0.0609
     29 C         141.7474  132.9974  155.4778 C.3     1  UNL1        0.0758
     30 N         142.7810  132.6156  156.4956 N.3     1  UNL1       -0.2737
     31 C         143.4544  133.6763  157.3151 C.3     1  UNL1        0.0758
     32 C         143.0942  135.1188  157.1167 C.3     1  UNL1        0.0609
     33 C         143.1412  131.1731  156.6940 C.3     1  UNL1        0.0575
     34 C         144.2193  130.6495  157.5960 C.3     1  UNL1        0.0160
     35 C         144.2310  129.1537  157.4847 C.3     1  UNL1        0.0014
     36 C         143.1601  128.7527  156.5138 C.3     1  UNL1        0.0014
     37 C         142.4866  130.0008  156.0251 C.3     1  UNL1        0.0160
@<TRIPOS>BOND
     1    16    17    1
     2    17    18    2
     3    17    19    2
     4    17    10    1
     5    10    11   ar
     6    11    12   ar
     7    12    13   ar
     8    13     1    1
     9     1     2    2
    10     1     3   am
    11     3     4    1
    12     4     5    1
    13     5     6    1
    14     6    20    1
    15    20    21   ar
    16    21    22   ar
    17    22    23   ar
    18    23    26    1
    19    26    27    1
    20    27    28    1
    21    28    29    1
    22    29    30    1
    23    30    33    1
    24    33    34    1
    25    34    35    1
    26    35    36    1
    27    36    37    1
    28    30    31    1
    29    31    32    1
    30    23    24   ar
    31    24    25   ar
    32     6     7   am
    33     7     8    2
    34     7     9    1
    35    13    14   ar
    36    14    15   ar
    37    15    10   ar
    38     9     3    1
    39    25    20   ar
    40    32    27    1
    41    37    33    1
@<TRIPOS>MOLECULE
*****
 37 41 0 0 0
SMALL
GASTEIGER

@<TRIPOS>ATOM
      1 C         138.8690  146.1661  155.5319 C.2     1  UNL1        0.2494
      2 O         137.7970  145.3956  154.8197 O.2     1  UNL1       -0.2699
      3 N         139.6759  145.5063  156.6105 N.am    1  UNL1       -0.2660
      4 C         140.7480  146.2768  157.3227 C.3     1  UNL1        0.1160
      5 C         141.5550  145.6170  158.4013 C.3     1  UNL1        0.1197
      6 N         141.2899  144.1868  158.7678 N.am    1  UNL1       -0.2555
      7 C         140.2180  143.4164  158.0557 C.2     1  UNL1        0.2497
      8 O         139.9529  141.9862  158.4221 O.2     1  UNL1       -0.2727
      9 C         139.4109  144.0761  156.9770 C.3     1  UNL1        0.1799
     10 C         139.6640  150.4566  154.4324 C.ar    1  UNL1        0.1057
     11 C         140.3491  149.3515  153.6846 C.ar    1  UNL1        0.0185
     12 C         140.0840  147.9213  154.0511 C.ar    1  UNL1        0.0058
     13 C         139.1340  147.5963  155.1654 C.ar    1  UNL1        0.0537
     14 C         138.4490  148.7014  155.9132 C.ar    1  UNL1        0.0058
     15 C         138.7140  150.1316  155.5467 C.ar    1  UNL1        0.0185
     16 C         140.1941  153.3170  153.6994 C.3     1  UNL1        0.1816
     17 S         139.9291  151.8868  154.0659 S.O2    1  UNL1        0.0104
     18 O         141.3005  151.7863  154.6652 O.2     1  UNL1       -0.1686
     19 O         138.5577  151.9874  153.4666 O.2     1  UNL1       -0.1686
     20 C         142.0970  143.5271  159.8465 C.ar    1  UNL1        0.0541
     21 C         143.4411  142.9431  159.5267 C.ar    1  UNL1        0.0180
     22 C         144.2480  142.2834  160.6053 C.ar    1  UNL1        0.0382
     23 C         143.7109  142.2077  162.0038 C.ar    1  UNL1        0.1385
     24 C         142.3668  142.7917  162.3237 C.ar    1  UNL1        0.0382
     25 C         141.5599  143.4514  161.2450 C.ar    1  UNL1        0.0180
     26 O         144.5179  141.5479  163.0825 O.3     1  UNL1       -0.4791
     27 C         143.9162  141.3228  164.4379 C.3     1  UNL1        0.1687
     28 C         143.8759  142.4418  165.4360 C.3     1  UNL1        0.0609
     29 C         143.2742  142.2166  166.7914 C.3     1  UNL1        0.0758
     30 N         142.7127  140.8723  167.1488 N.3     1  UNL1       -0.2737
     31 C         142.7531  139.7533  166.1508 C.3     1  UNL1        0.0758
     32 C         143.3548  139.9785  164.7953 C.3     1  UNL1        0.0609
     33 C         142.1110  140.6471  168.5042 C.3     1  UNL1        0.0575
     34 C         140.7562  140.0665  168.7820 C.3     1  UNL1        0.0160
     35 C         140.5663  140.0235  170.2693 C.3     1  UNL1        0.0014
     36 C         141.8038  140.5777  170.9108 C.3     1  UNL1        0.0014
     37 C         142.7585  140.9630  169.8199 C.3     1  UNL1        0.0160
@<TRIPOS>BOND
     1    16    17    1
     2    17    18    2
     3    17    19    2
     4    17    10    1
     5    10    11   ar
     6    11    12   ar
     7    12    13   ar
     8    13     1    1
     9     1     2    2
    10     1     3   am
    11     3     4    1
    12     4     5    1
    13     5     6    1
    14     6    20    1
    15    20    21   ar
    16    21    22   ar
    17    22    23   ar
    18    23    26    1
    19    26    27    1
    20    27    28    1
    21    28    29    1
    22    29    30    1
    23    30    33    1
    24    33    34    1
    25    34    35    1
    26    35    36    1
    27    36    37    1
    28    30    31    1
    29    31    32    1
    30    23    24   ar
    31    24    25   ar
    32     6     7   am
    33     7     8    2
    34     7     9    1
    35    13    14   ar
    36    14    15   ar
    37    15    10   ar
    38     9     3    1
    39    25    20   ar
    40    32    27    1
    41    37    33    1
@<TRIPOS>MOLECULE
*****
 37 41 0 0 0
SMALL
GASTEIGER

@<TRIPOS>ATOM
      1 C         138.8846  142.1675  164.5519 C.2     1  UNL1        0.2494
      2 O         137.7592  143.1579  164.6028 O.2     1  UNL1       -0.2699
      3 N         139.2978  141.5686  163.2402 N.am    1  UNL1       -0.2660
      4 C         140.4232  140.5782  163.1892 C.3     1  UNL1        0.1160
      5 C         140.8364  139.9792  161.8775 C.3     1  UNL1        0.1197
      6 N         140.1241  140.3707  160.6168 N.am    1  UNL1       -0.2555
      7 C         138.9987  141.3610  160.6677 C.2     1  UNL1        0.2497
      8 O         138.2864  141.7524  159.4070 O.2     1  UNL1       -0.2727
      9 C         138.5855  141.9600  161.9794 C.3     1  UNL1        0.1799
     10 C         141.0214  140.9933  168.3341 C.ar    1  UNL1        0.1057
     11 C         139.9361  140.1169  167.7828 C.ar    1  UNL1        0.0185
     12 C         139.2239  140.5083  166.5221 C.ar    1  UNL1        0.0058
     13 C         139.5969  141.7761  165.8126 C.ar    1  UNL1        0.0537
     14 C         140.6822  142.6525  166.3639 C.ar    1  UNL1        0.0058
     15 C         141.3945  142.2611  167.6246 C.ar    1  UNL1        0.0185
     16 C         142.4460  140.2105  170.8556 C.3     1  UNL1        0.1816
     17 S         141.7337  140.6019  169.5948 S.O2    1  UNL1        0.0104
     18 O         140.7316  139.5091  169.8217 O.2     1  UNL1       -0.1686
     19 O         142.7358  141.6947  169.3679 O.2     1  UNL1       -0.1686
     20 C         140.5373  139.7717  159.3050 C.ar    1  UNL1        0.0541
     21 C         141.6815  140.3642  158.5372 C.ar    1  UNL1        0.0180
     22 C         142.0946  139.7652  157.2256 C.ar    1  UNL1        0.0382
     23 C         141.3635  138.5737  156.6817 C.ar    1  UNL1        0.1385
     24 C         140.2193  137.9812  157.4495 C.ar    1  UNL1        0.0382
     25 C         139.8062  138.5801  158.7612 C.ar    1  UNL1        0.0180
     26 O         141.7767  137.9747  155.3700 O.3     1  UNL1       -0.4791
     27 C         142.2603  136.5560  155.3125 C.3     1  UNL1        0.1687
     28 C         141.7625  135.6369  154.2366 C.3     1  UNL1        0.0609
     29 C         142.2461  134.2182  154.1791 C.3     1  UNL1        0.0758
     30 N         143.2275  133.7185  155.1976 N.3     1  UNL1       -0.2737
     31 C         143.7253  134.6375  156.2734 C.3     1  UNL1        0.0758
     32 C         143.2417  136.0563  156.3309 C.3     1  UNL1        0.0609
     33 C         143.7111  132.2998  155.1401 C.3     1  UNL1        0.0575
     34 C         143.3567  131.2894  154.0897 C.3     1  UNL1        0.0160
     35 C         144.0605  130.0075  154.4233 C.3     1  UNL1        0.0014
     36 C         144.8501  130.2256  155.6799 C.3     1  UNL1        0.0014
     37 C         144.6341  131.6423  156.1229 C.3     1  UNL1        0.0160
@<TRIPOS>BOND
     1    16    17    1
     2    17    18    2
     3    17    19    2
     4    17    10    1
     5    10    11   ar
     6    11    12   ar
     7    12    13   ar
     8    13     1    1
     9     1     2    2
    10     1     3   am
    11     3     4    1
    12     4     5    1
    13     5     6    1
    14     6    20    1
    15    20    21   ar
    16    21    22   ar
    17    22    23   ar
    18    23    26    1
    19    26    27    1
    20    27    28    1
    21    28    29    1
    22    29    30    1
    23    30    33    1
    24    33    34    1
    25    34    35    1
    26    35    36    1
    27    36    37    1
    28    30    31    1
    29    31    32    1
    30    23    24   ar
    31    24    25   ar
    32     6     7   am
    33     7     8    2
    34     7     9    1
    35    13    14   ar
    36    14    15   ar
    37    15    10   ar
    38     9     3    1
    39    25    20   ar
    40    32    27    1
    41    37    33    1
@<TRIPOS>MOLECULE
*****
 37 41 0 0 0
SMALL
GASTEIGER

@<TRIPOS>ATOM
      1 C         142.4595  136.2304  155.0741 C.2     1  UNL1        0.2494
      2 O         142.2846  136.6266  153.6380 O.2     1  UNL1       -0.2699
      3 N         142.4785  137.2807  156.1448 N.am    1  UNL1       -0.2660
      4 C         142.6535  136.8846  157.5810 C.3     1  UNL1        0.1160
      5 C         142.6725  137.9348  158.6517 C.3     1  UNL1        0.1197
      6 N         142.5166  139.3813  158.2864 N.am    1  UNL1       -0.2555
      7 C         142.3417  139.7774  156.8503 C.2     1  UNL1        0.2497
      8 O         142.1858  141.2239  156.4849 O.2     1  UNL1       -0.2727
      9 C         142.3227  138.7271  155.7795 C.3     1  UNL1        0.1799
     10 C         142.9271  131.8911  156.1702 C.ar    1  UNL1        0.1057
     11 C         144.0783  132.8368  156.3442 C.ar    1  UNL1        0.0185
     12 C         143.9224  134.2833  155.9788 C.ar    1  UNL1        0.0058
     13 C         142.6154  134.7840  155.4395 C.ar    1  UNL1        0.0537
     14 C         141.4642  133.8382  155.2655 C.ar    1  UNL1        0.0058
     15 C         141.6201  132.3917  155.6309 C.ar    1  UNL1        0.0185
     16 C         143.2389  128.9982  156.9010 C.3     1  UNL1        0.1816
     17 S         143.0830  130.4446  156.5356 S.O2    1  UNL1        0.0104
     18 O         141.9378  130.0932  155.6329 O.2     1  UNL1       -0.1686
     19 O         144.2283  130.7961  157.4383 O.2     1  UNL1       -0.1686
     20 C         142.5357  140.4316  159.3572 C.ar    1  UNL1        0.0541
     21 C         141.2504  140.8945  159.9767 C.ar    1  UNL1        0.0180
     22 C         141.2695  141.9447  161.0474 C.ar    1  UNL1        0.0382
     23 C         142.5739  142.5321  161.4987 C.ar    1  UNL1        0.1385
     24 C         143.8592  142.0692  160.8792 C.ar    1  UNL1        0.0382
     25 C         143.8401  141.0190  159.8085 C.ar    1  UNL1        0.0180
     26 O         142.5930  143.5824  162.5695 O.3     1  UNL1       -0.4791
     27 C         142.0727  143.2655  163.9402 C.3     1  UNL1        0.1687
     28 C         140.6910  143.6948  164.3358 C.3     1  UNL1        0.0609
     29 C         140.1708  143.3779  165.7065 C.3     1  UNL1        0.0758
     30 N         141.0323  142.6317  166.6817 N.3     1  UNL1       -0.2737
     31 C         142.4140  142.2024  166.2862 C.3     1  UNL1        0.0758
     32 C         142.9342  142.5193  164.9153 C.3     1  UNL1        0.0609
     33 C         140.5121  142.3148  168.0524 C.3     1  UNL1        0.0575
     34 C         139.9720  140.9910  168.5062 C.3     1  UNL1        0.0160
     35 C         139.5667  141.1241  169.9443 C.3     1  UNL1        0.0014
     36 C         139.8563  142.5302  170.3793 C.3     1  UNL1        0.0014
     37 C         140.4405  143.2660  169.2101 C.3     1  UNL1        0.0160
@<TRIPOS>BOND
     1    16    17    1
     2    17    18    2
     3    17    19    2
     4    17    10    1
     5    10    11   ar
     6    11    12   ar
     7    12    13   ar
     8    13     1    1
     9     1     2    2
    10     1     3   am
    11     3     4    1
    12     4     5    1
    13     5     6    1
    14     6    20    1
    15    20    21   ar
    16    21    22   ar
    17    22    23   ar
    18    23    26    1
    19    26    27    1
    20    27    28    1
    21    28    29    1
    22    29    30    1
    23    30    33    1
    24    33    34    1
    25    34    35    1
    26    35    36    1
    27    36    37    1
    28    30    31    1
    29    31    32    1
    30    23    24   ar
    31    24    25   ar
    32     6     7   am
    33     7     8    2
    34     7     9    1
    35    13    14   ar
    36    14    15   ar
    37    15    10   ar
    38     9     3    1
    39    25    20   ar
    40    32    27    1
    41    37    33    1
@<TRIPOS>MOLECULE
*****
 37 41 0 0 0
SMALL
GASTEIGER

@<TRIPOS>ATOM
      1 C         140.8239  138.1404  163.8165 C.2     1  UNL1        0.2494
      2 O         141.1002  136.6662  163.8013 O.2     1  UNL1       -0.2699
      3 N         140.7599  138.9048  162.5275 N.am    1  UNL1       -0.2660
      4 C         140.4836  140.3791  162.5427 C.3     1  UNL1        0.1160
      5 C         140.4195  141.1435  161.2537 C.3     1  UNL1        0.1197
      6 N         140.6317  140.4336  159.9495 N.am    1  UNL1       -0.2555
      7 C         140.9080  138.9594  159.9342 C.2     1  UNL1        0.2497
      8 O         141.1202  138.2495  158.6300 O.2     1  UNL1       -0.2727
      9 C         140.9721  138.1949  161.2233 C.3     1  UNL1        0.1799
     10 C         140.1873  140.2699  167.7293 C.ar    1  UNL1        0.1057
     11 C         139.0245  139.6433  167.0186 C.ar    1  UNL1        0.0185
     12 C         139.2367  138.9334  165.7143 C.ar    1  UNL1        0.0058
     13 C         140.6117  138.8502  165.1208 C.ar    1  UNL1        0.0537
     14 C         141.7745  139.4769  165.8315 C.ar    1  UNL1        0.0058
     15 C         141.5623  140.1867  167.1357 C.ar    1  UNL1        0.0185
     16 C         139.7629  141.6896  170.3378 C.3     1  UNL1        0.1816
     17 S         139.9751  140.9798  169.0336 S.O2    1  UNL1        0.0104
     18 O         140.8940  142.0775  168.5856 O.2     1  UNL1       -0.1686
     19 O         139.0562  139.8820  169.4815 O.2     1  UNL1       -0.1686
     20 C         140.5677  141.1981  158.6604 C.ar    1  UNL1        0.0541
     21 C         141.7324  142.0386  158.2282 C.ar    1  UNL1        0.0180
     22 C         141.6683  142.8030  156.9392 C.ar    1  UNL1        0.0382
     23 C         140.4394  142.7269  156.0825 C.ar    1  UNL1        0.1385
     24 C         139.2746  141.8864  156.5147 C.ar    1  UNL1        0.0382
     25 C         139.3388  141.1220  157.8037 C.ar    1  UNL1        0.0180
     26 O         140.3753  143.4914  154.7934 O.3     1  UNL1       -0.4791
     27 C         140.0999  144.9657  154.8087 C.3     1  UNL1        0.1687
     28 C         139.1258  145.5365  155.7964 C.3     1  UNL1        0.0609
     29 C         138.8504  147.0109  155.8117 C.3     1  UNL1        0.0758
     30 N         139.5489  147.9146  154.8393 N.3     1  UNL1       -0.2737
     31 C         140.5229  147.3438  153.8516 C.3     1  UNL1        0.0758
     32 C         140.7984  145.8693  153.8364 C.3     1  UNL1        0.0609
     33 C         139.2735  149.3890  154.8546 C.3     1  UNL1        0.0575
     34 C         138.5049  150.1314  155.9073 C.3     1  UNL1        0.0160
     35 C         138.4746  151.5811  155.5232 C.3     1  UNL1        0.0014
     36 C         139.2245  151.7346  154.2331 C.3     1  UNL1        0.0014
     37 C         139.7182  150.3798  153.8200 C.3     1  UNL1        0.0160
@<TRIPOS>BOND
     1    16    17    1
     2    17    18    2
     3    17    19    2
     4    17    10    1
     5    10    11   ar
     6    11    12   ar
     7    12    13   ar
     8    13     1    1
     9     1     2    2
    10     1     3   am
    11     3     4    1
    12     4     5    1
    13     5     6    1
    14     6    20    1
    15    20    21   ar
    16    21    22   ar
    17    22    23   ar
    18    23    26    1
    19    26    27    1
    20    27    28    1
    21    28    29    1
    22    29    30    1
    23    30    33    1
    24    33    34    1
    25    34    35    1
    26    35    36    1
    27    36    37    1
    28    30    31    1
    29    31    32    1
    30    23    24   ar
    31    24    25   ar
    32     6     7   am
    33     7     8    2
    34     7     9    1
    35    13    14   ar
    36    14    15   ar
    37    15    10   ar
    38     9     3    1
    39    25    20   ar
    40    32    27    1
    41    37    33    1
@<TRIPOS>MOLECULE
*****
 37 41 0 0 0
SMALL
GASTEIGER

@<TRIPOS>ATOM
      1 C         139.4508  142.8225  154.6494 C.2     1  UNL1        0.2494
      2 O         139.4912  142.0565  153.3604 O.2     1  UNL1       -0.2699
      3 N         139.3722  142.0890  155.9555 N.am    1  UNL1       -0.2660
      4 C         139.3318  142.8550  157.2446 C.3     1  UNL1        0.1160
      5 C         139.2532  142.1215  158.5506 C.3     1  UNL1        0.1197
      6 N         139.2151  140.6221  158.5677 N.am    1  UNL1       -0.2555
      7 C         139.2555  139.8562  157.2786 C.2     1  UNL1        0.2497
      8 O         139.2174  138.3567  157.2957 O.2     1  UNL1       -0.2727
      9 C         139.3341  140.5896  155.9725 C.3     1  UNL1        0.1799
     10 C         139.5653  147.3208  154.5984 C.ar    1  UNL1        0.1057
     11 C         140.7730  146.5350  154.1815 C.ar    1  UNL1        0.0185
     12 C         140.7349  145.0356  154.1985 C.ar    1  UNL1        0.0058
     13 C         139.4890  144.3219  154.6324 C.ar    1  UNL1        0.0537
     14 C         138.2812  145.1077  155.0493 C.ar    1  UNL1        0.0058
     15 C         138.3193  146.6071  155.0322 C.ar    1  UNL1        0.0185
     16 C         139.6415  150.3196  154.5643 C.3     1  UNL1        0.1816
     17 S         139.6034  148.8202  154.5813 S.O2    1  UNL1        0.0104
     18 O         140.5643  148.7827  153.4301 O.2     1  UNL1       -0.1686
     19 O         138.6425  148.8577  155.7325 O.2     1  UNL1       -0.1686
     20 C         139.1365  139.8886  159.8738 C.ar    1  UNL1        0.0541
     21 C         140.3931  139.4372  160.5573 C.ar    1  UNL1        0.0180
     22 C         140.3145  138.7038  161.8633 C.ar    1  UNL1        0.0382
     23 C         138.9793  138.4218  162.4860 C.ar    1  UNL1        0.1385
     24 C         137.7227  138.8732  161.8025 C.ar    1  UNL1        0.0382
     25 C         137.8013  139.6066  160.4964 C.ar    1  UNL1        0.0180
     26 O         138.9007  137.6883  163.7921 O.3     1  UNL1       -0.4791
     27 C         139.2212  138.4006  165.0727 C.3     1  UNL1        0.1687
     28 C         140.6209  138.8688  165.3404 C.3     1  UNL1        0.0609
     29 C         140.9415  139.5811  166.6210 C.3     1  UNL1        0.0758
     30 N         139.8623  139.8251  167.6339 N.3     1  UNL1       -0.2737
     31 C         138.4626  139.3568  167.3662 C.3     1  UNL1        0.0758
     32 C         138.1421  138.6446  166.0855 C.3     1  UNL1        0.0609
     33 C         140.1829  140.5373  168.9145 C.3     1  UNL1        0.0575
     34 C         140.4415  139.8898  170.2426 C.3     1  UNL1        0.0160
     35 C         140.7195  140.9744  171.2407 C.3     1  UNL1        0.0014
     36 C         140.6328  142.2923  170.5295 C.3     1  UNL1        0.0014
     37 C         140.3011  142.0221  169.0918 C.3     1  UNL1        0.0160
@<TRIPOS>BOND
     1    16    17    1
     2    17    18    2
     3    17    19    2
     4    17    10    1
     5    10    11   ar
     6    11    12   ar
     7    12    13   ar
     8    13     1    1
     9     1     2    2
    10     1     3   am
    11     3     4    1
    12     4     5    1
    13     5     6    1
    14     6    20    1
    15    20    21   ar
    16    21    22   ar
    17    22    23   ar
    18    23    26    1
    19    26    27    1
    20    27    28    1
    21    28    29    1
    22    29    30    1
    23    30    33    1
    24    33    34    1
    25    34    35    1
    26    35    36    1
    27    36    37    1
    28    30    31    1
    29    31    32    1
    30    23    24   ar
    31    24    25   ar
    32     6     7   am
    33     7     8    2
    34     7     9    1
    35    13    14   ar
    36    14    15   ar
    37    15    10   ar
    38     9     3    1
    39    25    20   ar
    40    32    27    1
    41    37    33    1
@<TRIPOS>MOLECULE
*****
 37 41 0 0 0
SMALL
GASTEIGER

@<TRIPOS>ATOM
      1 C         138.9691  142.6612  164.2967 C.2     1  UNL1        0.2494
      2 O         137.7195  143.4753  164.4571 O.2     1  UNL1       -0.2699
      3 N         139.5915  142.5019  162.9412 N.am    1  UNL1       -0.2660
      4 C         140.8411  141.6879  162.7807 C.3     1  UNL1        0.1160
      5 C         141.4635  141.5285  161.4253 C.3     1  UNL1        0.1197
      6 N         140.8363  142.1833  160.2304 N.am    1  UNL1       -0.2555
      7 C         139.5867  142.9973  160.3908 C.2     1  UNL1        0.2497
      8 O         138.9595  143.6520  159.1958 O.2     1  UNL1       -0.2727
      9 C         138.9643  143.1566  161.7463 C.3     1  UNL1        0.1799
     10 C         140.8507  140.6971  167.8816 C.ar    1  UNL1        0.1057
     11 C         141.1848  142.1199  167.5443 C.ar    1  UNL1        0.0185
     12 C         140.5576  142.7746  166.3493 C.ar    1  UNL1        0.0058
     13 C         139.5963  142.0065  165.4916 C.ar    1  UNL1        0.0537
     14 C         139.2621  140.5837  165.8289 C.ar    1  UNL1        0.0058
     15 C         139.8893  139.9289  167.0239 C.ar    1  UNL1        0.0185
     16 C         142.1051  139.3876  170.2715 C.3     1  UNL1        0.1816
     17 S         141.4779  140.0423  169.0765 S.O2    1  UNL1        0.0104
     18 O         142.8398  140.3861  168.5500 O.2     1  UNL1       -0.1686
     19 O         140.1160  139.6986  169.6030 O.2     1  UNL1       -0.1686
     20 C         141.4588  142.0239  158.8749 C.ar    1  UNL1        0.0541
     21 C         142.2142  143.1634  158.2579 C.ar    1  UNL1        0.0180
     22 C         142.8366  143.0041  156.9025 C.ar    1  UNL1        0.0382
     23 C         142.7036  141.7052  156.1641 C.ar    1  UNL1        0.1385
     24 C         141.9482  140.5656  156.7811 C.ar    1  UNL1        0.0382
     25 C         141.3258  140.7250  158.1365 C.ar    1  UNL1        0.0180
     26 O         143.3261  141.5458  154.8086 O.3     1  UNL1       -0.4791
     27 C         144.7965  141.7793  154.6265 C.3     1  UNL1        0.1687
     28 C         145.2905  142.5699  153.4513 C.3     1  UNL1        0.0609
     29 C         146.7609  142.8035  153.2691 C.3     1  UNL1        0.0758
     30 N         147.7375  142.2464  154.2621 N.3     1  UNL1       -0.2737
     31 C         147.2436  141.4558  155.4373 C.3     1  UNL1        0.0758
     32 C         145.7730  141.2222  155.6194 C.3     1  UNL1        0.0609
     33 C         149.2079  142.4799  154.0799 C.3     1  UNL1        0.0575
     34 C         149.8344  143.4558  153.1286 C.3     1  UNL1        0.0160
     35 C         151.3238  143.3576  153.2778 C.3     1  UNL1        0.0014
     36 C         151.6177  142.3209  154.3214 C.3     1  UNL1        0.0014
     37 C         150.3101  141.7785  154.8171 C.3     1  UNL1        0.0160
@<TRIPOS>BOND
     1    16    17    1
     2    17    18    2
     3    17    19    2
     4    17    10    1
     5    10    11   ar
     6    11    12   ar
     7    12    13   ar
     8    13     1    1
     9     1     2    2
    10     1     3   am
    11     3     4    1
    12     4     5    1
    13     5     6    1
    14     6    20    1
    15    20    21   ar
    16    21    22   ar
    17    22    23   ar
    18    23    26    1
    19    26    27    1
    20    27    28    1
    21    28    29    1
    22    29    30    1
    23    30    33    1
    24    33    34    1
    25    34    35    1
    26    35    36    1
    27    36    37    1
    28    30    31    1
    29    31    32    1
    30    23    24   ar
    31    24    25   ar
    32     6     7   am
    33     7     8    2
    34     7     9    1
    35    13    14   ar
    36    14    15   ar
    37    15    10   ar
    38     9     3    1
    39    25    20   ar
    40    32    27    1
    41    37    33    1
@<TRIPOS>MOLECULE
*****
 37 41 0 0 0
SMALL
GASTEIGER

@<TRIPOS>ATOM
      1 C         147.1039  141.7690  154.2635 C.2     1  UNL1        0.2494
      2 O         146.3887  141.1442  153.1025 O.2     1  UNL1       -0.2699
      3 N         146.3734  142.0145  155.5504 N.am    1  UNL1       -0.2660
      4 C         147.0886  142.6393  156.7115 C.3     1  UNL1        0.1160
      5 C         146.3581  142.8847  157.9983 C.3     1  UNL1        0.1197
      6 N         144.9123  142.5054  158.1242 N.am    1  UNL1       -0.2555
      7 C         144.1971  141.8806  156.9632 C.2     1  UNL1        0.2497
      8 O         142.7513  141.5012  157.0890 O.2     1  UNL1       -0.2727
      9 C         144.9276  141.6351  155.6762 C.3     1  UNL1        0.1799
     10 C         151.4412  142.9072  153.8860 C.ar    1  UNL1        0.1057
     11 C         150.4019  143.6380  153.0887 C.ar    1  UNL1        0.0185
     12 C         148.9561  143.2586  153.2145 C.ar    1  UNL1        0.0058
     13 C         148.5497  142.1484  154.1377 C.ar    1  UNL1        0.0537
     14 C         149.5890  141.4176  154.9350 C.ar    1  UNL1        0.0058
     15 C         151.0347  141.7970  154.8091 C.ar    1  UNL1        0.0185
     16 C         154.3327  143.6659  153.6343 C.3     1  UNL1        0.1816
     17 S         152.8870  143.2865  153.7601 S.O2    1  UNL1        0.0104
     18 O         152.5066  144.7375  153.7641 O.2     1  UNL1       -0.1686
     19 O         153.2673  141.8356  153.7561 O.2     1  UNL1       -0.1686
     20 C         144.1818  142.7508  159.4111 C.ar    1  UNL1        0.0541
     21 C         144.8481  142.4501  160.7209 C.ar    1  UNL1        0.0180
     22 C         144.1176  142.6955  162.0078 C.ar    1  UNL1        0.0382
     23 C         142.7208  143.2418  161.9848 C.ar    1  UNL1        0.1385
     24 C         142.0545  143.5425  160.6751 C.ar    1  UNL1        0.0382
     25 C         142.7850  143.2971  159.3882 C.ar    1  UNL1        0.0180
     26 O         141.9902  143.4872  163.2718 O.3     1  UNL1       -0.4791
     27 C         141.1919  142.3854  163.9030 C.3     1  UNL1        0.1687
     28 C         141.2794  140.9899  163.3599 C.3     1  UNL1        0.0609
     29 C         140.4811  139.8880  163.9911 C.3     1  UNL1        0.0758
     30 N         139.5951  140.1815  165.1654 N.3     1  UNL1       -0.2737
     31 C         139.5076  141.5770  165.7085 C.3     1  UNL1        0.0758
     32 C         140.3060  142.6790  165.0772 C.3     1  UNL1        0.0609
     33 C         138.7968  139.0797  165.7966 C.3     1  UNL1        0.0575
     34 C         137.9510  139.1986  167.0297 C.3     1  UNL1        0.0160
     35 C         137.3355  137.8578  167.3007 C.3     1  UNL1        0.0014
     36 C         137.8009  136.9102  166.2350 C.3     1  UNL1        0.0014
     37 C         138.7039  137.6654  165.3055 C.3     1  UNL1        0.0160
@<TRIPOS>BOND
     1    16    17    1
     2    17    18    2
     3    17    19    2
     4    17    10    1
     5    10    11   ar
     6    11    12   ar
     7    12    13   ar
     8    13     1    1
     9     1     2    2
    10     1     3   am
    11     3     4    1
    12     4     5    1
    13     5     6    1
    14     6    20    1
    15    20    21   ar
    16    21    22   ar
    17    22    23   ar
    18    23    26    1
    19    26    27    1
    20    27    28    1
    21    28    29    1
    22    29    30    1
    23    30    33    1
    24    33    34    1
    25    34    35    1
    26    35    36    1
    27    36    37    1
    28    30    31    1
    29    31    32    1
    30    23    24   ar
    31    24    25   ar
    32     6     7   am
    33     7     8    2
    34     7     9    1
    35    13    14   ar
    36    14    15   ar
    37    15    10   ar
    38     9     3    1
    39    25    20   ar
    40    32    27    1
    41    37    33    1
