@<TRIPOS>MOLECULE
*****
 37 41 0 0 0
SMALL
GASTEIGER

@<TRIPOS>ATOM
      1 C         141.0182  139.6433  159.8835 C.ar    1  UNL1        0.1233
      2 C         141.0654  139.2504  161.3304 C.ar    1  UNL1        0.1180
      3 N         140.8982  140.4929  162.1539 N.ar    1  UNL1       -0.2233
      4 N         140.7477  141.6538  161.2160 N.ar    1  UNL1       -0.0634
      5 N         140.8218  141.1287  159.8128 N.ar    1  UNL1       -0.1287
      6 C         140.8840  140.5624  163.6522 C.3     1  UNL1        0.1834
      7 C         142.1080  141.1521  164.2880 C.3     1  UNL1        0.0386
      8 C         142.3979  141.3580  165.7452 C.3     1  UNL1        0.0324
      9 C         141.5357  141.0251  166.9266 C.ar    1  UNL1        0.0190
     10 C         142.2060  141.3958  168.2162 C.ar    1  UNL1        0.1373
     11 F         143.5713  142.0169  168.2003 F       1  UNL1       -0.2045
     12 C         141.5112  141.1454  169.5217 C.ar    1  UNL1        0.0294
     13 C         140.1459  140.5242  169.5376 C.ar    1  UNL1        0.0036
     14 C         139.4755  140.1535  168.2480 C.ar    1  UNL1        0.0147
     15 C         140.1704  140.4039  166.9425 C.ar    1  UNL1        0.0523
     16 N         139.3303  139.9624  165.7809 N.am    1  UNL1       -0.2491
     17 C         139.6478  140.0328  164.3166 C.2     1  UNL1        0.2520
     18 O         138.7022  139.5485  163.2577 O.2     1  UNL1       -0.2724
     19 C         137.9961  139.3723  166.1298 C.3     1  UNL1        0.2016
     20 C         137.8874  137.9171  166.4775 C.3     1  UNL1        0.4160
     21 F         137.7787  136.4620  166.8252 F       1  UNL1       -0.1682
     22 F         138.9091  137.4185  165.4990 F       1  UNL1       -0.1682
     23 F         136.8447  138.2408  167.5062 F       1  UNL1       -0.1682
     24 C         140.0476  137.3545  156.7902 C.ar    1  UNL1        0.1547
     25 C         139.9207  138.2838  157.9607 C.ar    1  UNL1        0.0400
     26 C         141.1450  138.7140  158.7129 C.ar    1  UNL1        0.0241
     27 C         142.4963  138.2149  158.2946 C.ar    1  UNL1        0.0033
     28 C         142.6232  137.2856  157.1240 C.ar    1  UNL1        0.0207
     29 C         141.3989  136.8554  156.3718 C.ar    1  UNL1        0.0994
     30 N         141.5258  135.9261  155.2012 N.ar    1  UNL1       -0.2839
     31 C         141.8046  136.3273  153.7830 C.ar    1  UNL1        0.1826
     32 N         141.8473  135.0816  152.9487 N.ar    1  UNL1       -0.2280
     33 C         141.5950  133.9104  153.8511 C.ar    1  UNL1        0.0786
     34 C         141.5493  132.4701  153.4346 C.3     1  UNL1        0.0538
     35 C         141.3962  134.4323  155.2433 C.ar    1  UNL1        0.0963
     36 C         138.4021  137.6657  154.8039 C.3     1  UNL1        0.2525
     37 O         138.8233  136.9243  156.0379 O.3     1  UNL1       -0.4700
@<TRIPOS>BOND
     1    36    37    1
     2    37    24    1
     3    24    25   ar
     4    25    26   ar
     5    26     1    1
     6     1     2   ar
     7     2     3   ar
     8     3     6    1
     9     6     7    1
    10     7     8    1
    11     8     9    1
    12     9    10   ar
    13    10    11    1
    14    10    12   ar
    15    12    13   ar
    16    13    14   ar
    17    14    15   ar
    18    15    16    1
    19    16    19    1
    20    19    20    1
    21    20    21    1
    22    20    22    1
    23    20    23    1
    24    16    17   am
    25    17    18    2
    26     3     4   ar
    27     4     5   ar
    28    26    27   ar
    29    27    28   ar
    30    28    29   ar
    31    29    30    1
    32    30    31   ar
    33    31    32   ar
    34    32    33   ar
    35    33    34    1
    36    33    35   ar
    37    29    24   ar
    38    35    30   ar
    39     5     1   ar
    40    17     6    1
    41    15     9   ar
@<TRIPOS>MOLECULE
*****
 37 41 0 0 0
SMALL
GASTEIGER

@<TRIPOS>ATOM
      1 C         141.1755  142.5294  160.6236 C.ar    1  UNL1        0.1233
      2 C         140.8927  142.7421  162.0813 C.ar    1  UNL1        0.1180
      3 N         141.3198  141.5091  162.8211 N.ar    1  UNL1       -0.2233
      4 N         141.8666  140.5344  161.8206 N.ar    1  UNL1       -0.0634
      5 N         141.7775  141.1650  160.4625 N.ar    1  UNL1       -0.1287
      6 C         141.2180  141.2894  164.3014 C.3     1  UNL1        0.1834
      7 C         142.4063  141.7238  165.1071 C.3     1  UNL1        0.0386
      8 C         142.6114  141.6405  166.5907 C.3     1  UNL1        0.0324
      9 C         141.6789  141.1021  167.6350 C.ar    1  UNL1        0.0190
     10 C         142.2747  141.2058  169.0076 C.ar    1  UNL1        0.1373
     11 F         143.6426  141.7938  169.1890 F       1  UNL1       -0.2045
     12 C         141.5025  140.7215  170.1989 C.ar    1  UNL1        0.0294
     13 C         140.1345  140.1335  170.0175 C.ar    1  UNL1        0.0036
     14 C         139.5387  140.0298  168.6449 C.ar    1  UNL1        0.0147
     15 C         140.3109  140.5141  167.4536 C.ar    1  UNL1        0.0523
     16 N         139.5376  140.3192  166.1831 N.am    1  UNL1       -0.2491
     17 C         139.9412  140.6643  164.7803 C.2     1  UNL1        0.2520
     18 O         139.0564  140.4096  163.5961 O.2     1  UNL1       -0.2724
     19 C         138.1813  139.6971  166.3357 C.3     1  UNL1        0.2016
     20 C         138.0418  138.2043  166.3825 C.3     1  UNL1        0.4160
     21 F         137.9025  136.7115  166.4293 F       1  UNL1       -0.1682
     22 F         139.1237  137.8884  165.3927 F       1  UNL1       -0.1682
     23 F         136.9347  138.3391  167.3856 F       1  UNL1       -0.1682
     24 C         139.6330  144.1579  157.3497 C.ar    1  UNL1        0.1547
     25 C         139.9044  143.1781  158.4525 C.ar    1  UNL1        0.0400
     26 C         140.9041  143.5092  159.5207 C.ar    1  UNL1        0.0241
     27 C         141.6323  144.8201  159.4861 C.ar    1  UNL1        0.0033
     28 C         141.3609  145.7999  158.3832 C.ar    1  UNL1        0.0207
     29 C         140.3613  145.4688  157.3151 C.ar    1  UNL1        0.0994
     30 N         140.0899  146.4486  156.2121 N.ar    1  UNL1       -0.2839
     31 C         139.0293  147.5093  156.2163 C.ar    1  UNL1        0.1826
     32 N         139.1154  148.2559  154.9182 N.ar    1  UNL1       -0.2280
     33 C         140.2291  147.6568  154.1118 C.ar    1  UNL1        0.0786
     34 C         140.6643  148.0972  152.7455 C.3     1  UNL1        0.0538
     35 C         140.8314  146.5397  154.9115 C.ar    1  UNL1        0.0963
     36 C         139.0204  142.9278  155.1448 C.3     1  UNL1        0.2525
     37 O         138.6334  143.8267  156.2815 O.3     1  UNL1       -0.4700
@<TRIPOS>BOND
     1    36    37    1
     2    37    24    1
     3    24    25   ar
     4    25    26   ar
     5    26     1    1
     6     1     2   ar
     7     2     3   ar
     8     3     6    1
     9     6     7    1
    10     7     8    1
    11     8     9    1
    12     9    10   ar
    13    10    11    1
    14    10    12   ar
    15    12    13   ar
    16    13    14   ar
    17    14    15   ar
    18    15    16    1
    19    16    19    1
    20    19    20    1
    21    20    21    1
    22    20    22    1
    23    20    23    1
    24    16    17   am
    25    17    18    2
    26     3     4   ar
    27     4     5   ar
    28    26    27   ar
    29    27    28   ar
    30    28    29   ar
    31    29    30    1
    32    30    31   ar
    33    31    32   ar
    34    32    33   ar
    35    33    34    1
    36    33    35   ar
    37    29    24   ar
    38    35    30   ar
    39     5     1   ar
    40    17     6    1
    41    15     9   ar
@<TRIPOS>MOLECULE
*****
 37 41 0 0 0
SMALL
GASTEIGER

@<TRIPOS>ATOM
      1 C         139.3902  142.9310  161.1535 C.ar    1  UNL1        0.1233
      2 C         140.3009  142.9430  162.3454 C.ar    1  UNL1        0.1180
      3 N         139.6640  142.1176  163.4238 N.ar    1  UNL1       -0.2233
      4 N         138.3597  141.5953  162.8984 N.ar    1  UNL1       -0.0634
      5 N         138.1905  142.0980  161.4953 N.ar    1  UNL1       -0.1287
      6 C         140.2318  141.8596  164.7880 C.3     1  UNL1        0.1834
      7 C         139.9523  142.9128  165.8190 C.3     1  UNL1        0.0386
      8 C         140.3759  142.9489  167.2574 C.3     1  UNL1        0.0324
      9 C         141.1837  141.9411  168.0203 C.ar    1  UNL1        0.0190
     10 C         141.3836  142.3643  169.4453 C.ar    1  UNL1        0.1373
     11 F         140.8000  143.6573  169.9327 F       1  UNL1       -0.2045
     12 C         142.1671  141.4944  170.3831 C.ar    1  UNL1        0.0294
     13 C         142.7507  140.2014  169.8958 C.ar    1  UNL1        0.0036
     14 C         142.5508  139.7782  168.4707 C.ar    1  UNL1        0.0147
     15 C         141.7673  140.6481  167.5329 C.ar    1  UNL1        0.0523
     16 N         141.6873  140.0436  166.1624 N.am    1  UNL1       -0.2491
     17 C         141.0039  140.5827  164.9408 C.2     1  UNL1        0.2520
     18 O         141.0070  139.8618  163.6254 O.2     1  UNL1       -0.2724
     19 C         142.3826  138.7256  165.9909 C.3     1  UNL1        0.2016
     20 C         143.8528  138.6860  165.6961 C.3     1  UNL1        0.4160
     21 F         145.3230  138.6465  165.4012 F       1  UNL1       -0.1682
     22 F         143.8830  139.8567  164.7587 F       1  UNL1       -0.1682
     23 F         144.0031  137.5017  166.6043 F       1  UNL1       -0.1682
     24 C         139.2592  143.8038  157.2843 C.ar    1  UNL1        0.1547
     25 C         139.0133  143.1055  158.5888 C.ar    1  UNL1        0.0400
     26 C         139.6361  143.6292  159.8489 C.ar    1  UNL1        0.0241
     27 C         140.5047  144.8513  159.8044 C.ar    1  UNL1        0.0033
     28 C         140.7506  145.5495  158.4999 C.ar    1  UNL1        0.0207
     29 C         140.1279  145.0258  157.2398 C.ar    1  UNL1        0.0994
     30 N         140.3738  145.7242  155.9352 N.ar    1  UNL1       -0.2839
     31 C         141.2016  145.2026  154.7983 C.ar    1  UNL1        0.1826
     32 N         141.1745  146.2228  153.6990 N.ar    1  UNL1       -0.2280
     33 C         140.3299  147.3749  154.1565 C.ar    1  UNL1        0.0786
     34 C         140.0324  148.6170  153.3700 C.3     1  UNL1        0.0538
     35 C         139.8350  147.0667  155.5386 C.ar    1  UNL1        0.0963
     36 C         137.4031  143.9302  155.4707 C.3     1  UNL1        0.2525
     37 O         138.6364  143.2801  156.0242 O.3     1  UNL1       -0.4700
@<TRIPOS>BOND
     1    36    37    1
     2    37    24    1
     3    24    25   ar
     4    25    26   ar
     5    26     1    1
     6     1     2   ar
     7     2     3   ar
     8     3     6    1
     9     6     7    1
    10     7     8    1
    11     8     9    1
    12     9    10   ar
    13    10    11    1
    14    10    12   ar
    15    12    13   ar
    16    13    14   ar
    17    14    15   ar
    18    15    16    1
    19    16    19    1
    20    19    20    1
    21    20    21    1
    22    20    22    1
    23    20    23    1
    24    16    17   am
    25    17    18    2
    26     3     4   ar
    27     4     5   ar
    28    26    27   ar
    29    27    28   ar
    30    28    29   ar
    31    29    30    1
    32    30    31   ar
    33    31    32   ar
    34    32    33   ar
    35    33    34    1
    36    33    35   ar
    37    29    24   ar
    38    35    30   ar
    39     5     1   ar
    40    17     6    1
    41    15     9   ar
@<TRIPOS>MOLECULE
*****
 37 41 0 0 0
SMALL
GASTEIGER

@<TRIPOS>ATOM
      1 C         142.6777  137.7338  157.7276 C.ar    1  UNL1        0.1233
      2 C         141.8928  138.1846  158.9237 C.ar    1  UNL1        0.1180
      3 N         142.4577  139.4967  159.3811 N.ar    1  UNL1       -0.2233
      4 N         143.5917  139.8568  158.4677 N.ar    1  UNL1       -0.0634
      5 N         143.7277  138.7673  157.4458 N.ar    1  UNL1       -0.1287
      6 C         141.9735  140.3065  160.5472 C.3     1  UNL1        0.1834
      7 C         140.7466  141.1336  160.3006 C.3     1  UNL1        0.0386
      8 C         140.0235  142.0406  161.2516 C.3     1  UNL1        0.0324
      9 C         140.3486  142.3446  162.6841 C.ar    1  UNL1        0.0190
     10 C         139.3650  143.3099  163.2763 C.ar    1  UNL1        0.1373
     11 F         138.2365  143.8379  162.4411 F       1  UNL1       -0.2045
     12 C         139.5100  143.7472  164.7038 C.ar    1  UNL1        0.0294
     13 C         140.6385  143.2192  165.5390 C.ar    1  UNL1        0.0036
     14 C         141.6221  142.2539  164.9468 C.ar    1  UNL1        0.0147
     15 C         141.4771  141.8166  163.5194 C.ar    1  UNL1        0.0523
     16 N         142.5593  140.8542  163.1284 N.am    1  UNL1       -0.2491
     17 C         142.7802  140.1822  161.8057 C.2     1  UNL1        0.2520
     18 O         143.9160  139.2343  161.5576 O.2     1  UNL1       -0.2724
     19 C         143.5518  140.5197  164.2022 C.3     1  UNL1        0.2016
     20 C         144.9812  140.9530  164.0637 C.3     1  UNL1        0.4160
     21 F         146.4105  141.3863  163.9253 F       1  UNL1       -0.1682
     22 F         144.7067  142.3988  163.7736 F       1  UNL1       -0.1682
     23 F         145.4333  139.5494  164.3390 F       1  UNL1       -0.1682
     24 C         143.0994  134.0127  156.4140 C.ar    1  UNL1        0.1547
     25 C         143.3249  135.2753  157.1917 C.ar    1  UNL1        0.0400
     26 C         142.4523  136.4711  156.9498 C.ar    1  UNL1        0.0241
     27 C         141.3541  136.4043  155.9303 C.ar    1  UNL1        0.0033
     28 C         141.1286  135.1416  155.1526 C.ar    1  UNL1        0.0207
     29 C         142.0012  133.9459  155.3944 C.ar    1  UNL1        0.0994
     30 N         141.7757  132.6832  154.6166 N.ar    1  UNL1       -0.2839
     31 C         142.5357  132.2507  153.3979 C.ar    1  UNL1        0.1826
     32 N         141.9802  130.9316  152.9491 N.ar    1  UNL1       -0.2280
     33 C         140.8770  130.5488  153.8904 C.ar    1  UNL1        0.0786
     34 C         140.0460  129.3024  153.8146 C.3     1  UNL1        0.0538
     35 C         140.7505  131.6314  154.9210 C.ar    1  UNL1        0.0963
     36 C         144.8101  132.7387  157.8974 C.3     1  UNL1        0.2525
     37 O         143.9721  132.8169  156.6558 O.3     1  UNL1       -0.4700
@<TRIPOS>BOND
     1    36    37    1
     2    37    24    1
     3    24    25   ar
     4    25    26   ar
     5    26     1    1
     6     1     2   ar
     7     2     3   ar
     8     3     6    1
     9     6     7    1
    10     7     8    1
    11     8     9    1
    12     9    10   ar
    13    10    11    1
    14    10    12   ar
    15    12    13   ar
    16    13    14   ar
    17    14    15   ar
    18    15    16    1
    19    16    19    1
    20    19    20    1
    21    20    21    1
    22    20    22    1
    23    20    23    1
    24    16    17   am
    25    17    18    2
    26     3     4   ar
    27     4     5   ar
    28    26    27   ar
    29    27    28   ar
    30    28    29   ar
    31    29    30    1
    32    30    31   ar
    33    31    32   ar
    34    32    33   ar
    35    33    34    1
    36    33    35   ar
    37    29    24   ar
    38    35    30   ar
    39     5     1   ar
    40    17     6    1
    41    15     9   ar
@<TRIPOS>MOLECULE
*****
 37 41 0 0 0
SMALL
GASTEIGER

@<TRIPOS>ATOM
      1 C         142.8746  137.0796  157.5375 C.ar    1  UNL1        0.1233
      2 C         142.6776  137.3475  159.0001 C.ar    1  UNL1        0.1180
      3 N         143.0214  138.7845  159.2587 N.ar    1  UNL1       -0.2233
      4 N         143.4309  139.4047  157.9557 N.ar    1  UNL1       -0.0634
      5 N         143.3402  138.3510  156.8920 N.ar    1  UNL1       -0.1287
      6 C         142.9654  139.4793  160.5869 C.3     1  UNL1        0.1834
      7 C         144.2661  140.0359  161.0854 C.3     1  UNL1        0.0386
      8 C         144.5387  140.7762  162.3612 C.3     1  UNL1        0.0324
      9 C         143.5782  141.1429  163.4534 C.ar    1  UNL1        0.0190
     10 C         144.2650  141.8862  164.5605 C.ar    1  UNL1        0.1373
     11 F         145.7355  142.1694  164.4743 F       1  UNL1       -0.2045
     12 C         143.4813  142.3463  165.7539 C.ar    1  UNL1        0.0294
     13 C         142.0108  142.0631  165.8401 C.ar    1  UNL1        0.0036
     14 C         141.3240  141.3198  164.7330 C.ar    1  UNL1        0.0147
     15 C         142.1077  140.8597  163.5397 C.ar    1  UNL1        0.0523
     16 N         141.2346  140.1399  162.5550 N.am    1  UNL1       -0.2491
     17 C         141.6163  139.5255  161.2408 C.2     1  UNL1        0.2520
     18 O         140.6268  138.8311  160.3527 O.2     1  UNL1       -0.2724
     19 C         139.7885  140.0184  162.9346 C.3     1  UNL1        0.2016
     20 C         139.2045  138.6714  163.2424 C.3     1  UNL1        0.4160
     21 F         138.6206  137.3245  163.5503 F       1  UNL1       -0.1682
     22 F         140.3396  138.1680  164.0839 F       1  UNL1       -0.1682
     23 F         137.9892  139.0133  162.4324 F       1  UNL1       -0.1682
     24 C         143.1478  133.2323  156.6030 C.ar    1  UNL1        0.1547
     25 C         143.3763  134.5416  157.2982 C.ar    1  UNL1        0.0400
     26 C         142.6462  135.7701  156.8424 C.ar    1  UNL1        0.0241
     27 C         141.6876  135.6892  155.6915 C.ar    1  UNL1        0.0033
     28 C         141.4592  134.3798  154.9964 C.ar    1  UNL1        0.0207
     29 C         142.1893  133.1513  155.4521 C.ar    1  UNL1        0.0994
     30 N         141.9608  131.8419  154.7569 N.ar    1  UNL1       -0.2839
     31 C         142.8596  131.2206  153.7292 C.ar    1  UNL1        0.1826
     32 N         142.2476  129.9186  153.3046 N.ar    1  UNL1       -0.2280
     33 C         140.9707  129.7352  154.0699 C.ar    1  UNL1        0.0786
     34 C         140.0353  128.5680  153.9574 C.3     1  UNL1        0.0538
     35 C         140.7934  130.9238  154.9675 C.ar    1  UNL1        0.0963
     36 C         145.1342  132.1348  157.8679 C.3     1  UNL1        0.2525
     37 O         143.8779  132.0038  157.0588 O.3     1  UNL1       -0.4700
@<TRIPOS>BOND
     1    36    37    1
     2    37    24    1
     3    24    25   ar
     4    25    26   ar
     5    26     1    1
     6     1     2   ar
     7     2     3   ar
     8     3     6    1
     9     6     7    1
    10     7     8    1
    11     8     9    1
    12     9    10   ar
    13    10    11    1
    14    10    12   ar
    15    12    13   ar
    16    13    14   ar
    17    14    15   ar
    18    15    16    1
    19    16    19    1
    20    19    20    1
    21    20    21    1
    22    20    22    1
    23    20    23    1
    24    16    17   am
    25    17    18    2
    26     3     4   ar
    27     4     5   ar
    28    26    27   ar
    29    27    28   ar
    30    28    29   ar
    31    29    30    1
    32    30    31   ar
    33    31    32   ar
    34    32    33   ar
    35    33    34    1
    36    33    35   ar
    37    29    24   ar
    38    35    30   ar
    39     5     1   ar
    40    17     6    1
    41    15     9   ar
@<TRIPOS>MOLECULE
*****
 37 41 0 0 0
SMALL
GASTEIGER

@<TRIPOS>ATOM
      1 C         142.4518  138.3875  158.1708 C.ar    1  UNL1        0.1233
      2 C         141.5057  138.9280  159.2016 C.ar    1  UNL1        0.1180
      3 N         142.1643  140.1006  159.8659 N.ar    1  UNL1       -0.2233
      4 N         143.5176  140.2847  159.2456 N.ar    1  UNL1       -0.0634
      5 N         143.6953  139.2260  158.1980 N.ar    1  UNL1       -0.1287
      6 C         141.5734  140.9413  160.9586 C.3     1  UNL1        0.1834
      7 C         140.9625  142.2400  160.5224 C.3     1  UNL1        0.0386
      8 C         140.2989  143.2903  161.3630 C.3     1  UNL1        0.0324
      9 C         140.0823  143.3014  162.8472 C.ar    1  UNL1        0.0190
     10 C         139.3738  144.5478  163.2883 C.ar    1  UNL1        0.1373
     11 F         138.9803  145.5843  162.2780 F       1  UNL1       -0.2045
     12 C         139.0589  144.7576  164.7398 C.ar    1  UNL1        0.0294
     13 C         139.4525  143.7211  165.7501 C.ar    1  UNL1        0.0036
     14 C         140.1609  142.4747  165.3090 C.ar    1  UNL1        0.0147
     15 C         140.4758  142.2649  163.8575 C.ar    1  UNL1        0.0523
     16 N         141.1832  140.9613  163.6331 N.am    1  UNL1       -0.2491
     17 C         141.6717  140.3722  162.3430 C.2     1  UNL1        0.2520
     18 O         142.3691  139.0462  162.2699 O.2     1  UNL1       -0.2724
     19 C         141.4353  140.1378  164.8612 C.3     1  UNL1        0.2016
     20 C         140.7381  138.8215  165.0379 C.3     1  UNL1        0.4160
     21 F         140.0408  137.5052  165.2145 F       1  UNL1       -0.1682
     22 F         139.3482  139.3119  164.7591 F       1  UNL1       -0.1682
     23 F         142.0528  138.1657  165.3404 F       1  UNL1       -0.1682
     24 C         142.9009  134.8847  156.3601 C.ar    1  UNL1        0.1547
     25 C         143.1539  136.0577  157.2601 C.ar    1  UNL1        0.0400
     26 C         142.1989  137.2144  157.2708 C.ar    1  UNL1        0.0241
     27 C         140.9911  137.1981  156.3815 C.ar    1  UNL1        0.0033
     28 C         140.7382  136.0251  155.4815 C.ar    1  UNL1        0.0207
     29 C         141.6931  134.8684  155.4708 C.ar    1  UNL1        0.0994
     30 N         141.4401  133.6953  154.5707 N.ar    1  UNL1       -0.2839
     31 C         141.5961  133.6788  153.0790 C.ar    1  UNL1        0.1826
     32 N         141.2392  132.3062  152.5908 N.ar    1  UNL1       -0.2280
     33 C         140.8626  131.4743  153.7808 C.ar    1  UNL1        0.0786
     34 C         140.4366  130.0364  153.7522 C.3     1  UNL1        0.0538
     35 C         140.9868  132.3329  155.0045 C.ar    1  UNL1        0.0963
     36 C         144.3469  133.1489  157.6430 C.3     1  UNL1        0.2525
     37 O         143.8558  133.7280  156.3494 O.3     1  UNL1       -0.4700
@<TRIPOS>BOND
     1    36    37    1
     2    37    24    1
     3    24    25   ar
     4    25    26   ar
     5    26     1    1
     6     1     2   ar
     7     2     3   ar
     8     3     6    1
     9     6     7    1
    10     7     8    1
    11     8     9    1
    12     9    10   ar
    13    10    11    1
    14    10    12   ar
    15    12    13   ar
    16    13    14   ar
    17    14    15   ar
    18    15    16    1
    19    16    19    1
    20    19    20    1
    21    20    21    1
    22    20    22    1
    23    20    23    1
    24    16    17   am
    25    17    18    2
    26     3     4   ar
    27     4     5   ar
    28    26    27   ar
    29    27    28   ar
    30    28    29   ar
    31    29    30    1
    32    30    31   ar
    33    31    32   ar
    34    32    33   ar
    35    33    34    1
    36    33    35   ar
    37    29    24   ar
    38    35    30   ar
    39     5     1   ar
    40    17     6    1
    41    15     9   ar
@<TRIPOS>MOLECULE
*****
 37 41 0 0 0
SMALL
GASTEIGER

@<TRIPOS>ATOM
      1 C         140.5379  139.3419  159.4625 C.ar    1  UNL1        0.1233
      2 C         140.7948  138.9794  160.8952 C.ar    1  UNL1        0.1180
      3 N         140.4143  140.1545  161.7462 N.ar    1  UNL1       -0.2233
      4 N         139.9223  141.2434  160.8394 N.ar    1  UNL1       -0.0634
      5 N         139.9986  140.7412  159.4280 N.ar    1  UNL1       -0.1287
      6 C         140.5092  140.2279  163.2414 C.3     1  UNL1        0.1834
      7 C         139.3167  139.7179  163.9950 C.3     1  UNL1        0.0386
      8 C         139.1046  139.6556  165.4786 C.3     1  UNL1        0.0324
      9 C         140.0324  140.0880  166.5750 C.ar    1  UNL1        0.0190
     10 C         139.4300  139.8508  167.9281 C.ar    1  UNL1        0.1373
     11 F         138.0608  139.2494  168.0445 F       1  UNL1       -0.2045
     12 C         140.1968  140.2151  169.1647 C.ar    1  UNL1        0.0294
     13 C         141.5660  140.8165  169.0483 C.ar    1  UNL1        0.0036
     14 C         142.1684  141.0537  167.6953 C.ar    1  UNL1        0.0147
     15 C         141.4016  140.6894  166.4586 C.ar    1  UNL1        0.0523
     16 N         142.1811  141.0070  165.2170 N.am    1  UNL1       -0.2491
     17 C         141.7840  140.8017  163.7852 C.2     1  UNL1        0.2520
     18 O         142.6747  141.1703  162.6359 O.2     1  UNL1       -0.2724
     19 C         143.5371  141.6097  165.4362 C.3     1  UNL1        0.2016
     20 C         143.7849  143.0467  165.0845 C.3     1  UNL1        0.4160
     21 F         144.0327  144.4837  164.7328 F       1  UNL1       -0.1682
     22 F         142.3790  143.5293  165.2858 F       1  UNL1       -0.1682
     23 F         145.2319  142.7370  164.8385 F       1  UNL1       -0.1682
     24 C         142.4062  137.1035  156.7702 C.ar    1  UNL1        0.1547
     25 C         142.1661  137.9854  157.9595 C.ar    1  UNL1        0.0400
     26 C         140.7781  138.4600  158.2731 C.ar    1  UNL1        0.0241
     27 C         139.6304  138.0529  157.3974 C.ar    1  UNL1        0.0033
     28 C         139.8707  137.1710  156.2081 C.ar    1  UNL1        0.0207
     29 C         141.2585  136.6963  155.8945 C.ar    1  UNL1        0.0994
     30 N         141.4987  135.8144  154.7050 N.ar    1  UNL1       -0.2839
     31 C         141.5209  136.2545  153.2712 C.ar    1  UNL1        0.1826
     32 N         141.7947  135.0497  152.4208 N.ar    1  UNL1       -0.2280
     33 C         141.9418  133.8650  153.3289 C.ar    1  UNL1        0.0786
     34 C         142.2226  132.4551  152.9005 C.3     1  UNL1        0.0538
     35 C         141.7589  134.3376  154.7407 C.ar    1  UNL1        0.0963
     36 C         144.5437  137.2162  155.2976 C.3     1  UNL1        0.2525
     37 O         143.7942  136.6289  156.4566 O.3     1  UNL1       -0.4700
@<TRIPOS>BOND
     1    36    37    1
     2    37    24    1
     3    24    25   ar
     4    25    26   ar
     5    26     1    1
     6     1     2   ar
     7     2     3   ar
     8     3     6    1
     9     6     7    1
    10     7     8    1
    11     8     9    1
    12     9    10   ar
    13    10    11    1
    14    10    12   ar
    15    12    13   ar
    16    13    14   ar
    17    14    15   ar
    18    15    16    1
    19    16    19    1
    20    19    20    1
    21    20    21    1
    22    20    22    1
    23    20    23    1
    24    16    17   am
    25    17    18    2
    26     3     4   ar
    27     4     5   ar
    28    26    27   ar
    29    27    28   ar
    30    28    29   ar
    31    29    30    1
    32    30    31   ar
    33    31    32   ar
    34    32    33   ar
    35    33    34    1
    36    33    35   ar
    37    29    24   ar
    38    35    30   ar
    39     5     1   ar
    40    17     6    1
    41    15     9   ar
@<TRIPOS>MOLECULE
*****
 37 41 0 0 0
SMALL
GASTEIGER

@<TRIPOS>ATOM
      1 C         142.8300  143.3684  160.8547 C.ar    1  UNL1        0.1233
      2 C         142.8510  142.4200  162.0167 C.ar    1  UNL1        0.1180
      3 N         142.2451  143.1197  163.1971 N.ar    1  UNL1       -0.2233
      4 N         141.8496  144.5004  162.7646 N.ar    1  UNL1       -0.0634
      5 N         142.2111  144.6542  161.3170 N.ar    1  UNL1       -0.1287
      6 C         142.0662  142.5403  164.5691 C.3     1  UNL1        0.1834
      7 C         143.1700  142.8239  165.5443 C.3     1  UNL1        0.0386
      8 C         143.2873  142.3911  166.9758 C.3     1  UNL1        0.0324
      9 C         142.3298  141.5679  167.7855 C.ar    1  UNL1        0.0190
     10 C         142.8305  141.3631  169.1845 C.ar    1  UNL1        0.1373
     11 F         144.1418  141.9568  169.6063 F       1  UNL1       -0.2045
     12 C         142.0199  140.5644  170.1617 C.ar    1  UNL1        0.0294
     13 C         140.7085  139.9706  169.7399 C.ar    1  UNL1        0.0036
     14 C         140.2079  140.1755  168.3409 C.ar    1  UNL1        0.0147
     15 C         141.0185  140.9741  167.3637 C.ar    1  UNL1        0.0523
     16 N         140.3409  141.0570  166.0280 N.am    1  UNL1       -0.2491
     17 C         140.8071  141.7539  164.7843 C.2     1  UNL1        0.2520
     18 O         140.0169  141.7520  163.5092 O.2     1  UNL1       -0.2724
     19 C         139.0226  140.3491  165.9221 C.3     1  UNL1        0.2016
     20 C         138.8867  139.1452  165.0376 C.3     1  UNL1        0.4160
     21 F         138.7508  137.9414  164.1532 F       1  UNL1       -0.1682
     22 F         140.0642  138.3884  165.5766 F       1  UNL1       -0.1682
     23 F         137.6835  139.7599  164.3859 F       1  UNL1       -0.1682
     24 C         143.0563  143.2333  156.8949 C.ar    1  UNL1        0.1547
     25 C         142.5477  143.5204  158.2764 C.ar    1  UNL1        0.0400
     26 C         143.3386  143.0813  159.4730 C.ar    1  UNL1        0.0241
     27 C         144.6380  142.3552  159.2880 C.ar    1  UNL1        0.0033
     28 C         145.1466  142.0682  157.9064 C.ar    1  UNL1        0.0207
     29 C         144.3558  142.5072  156.7099 C.ar    1  UNL1        0.0994
     30 N         144.8644  142.2201  155.3282 N.ar    1  UNL1       -0.2839
     31 C         144.3345  141.1736  154.3932 C.ar    1  UNL1        0.1826
     32 N         145.1348  141.2359  153.1262 N.ar    1  UNL1       -0.2280
     33 C         146.1594  142.3208  153.2780 C.ar    1  UNL1        0.0786
     34 C         147.1732  142.7263  152.2495 C.3     1  UNL1        0.0538
     35 C         145.9923  142.9291  154.6389 C.ar    1  UNL1        0.0963
     36 C         142.6005  144.9622  155.0099 C.3     1  UNL1        0.2525
     37 O         142.2655  143.6723  155.6983 O.3     1  UNL1       -0.4700
@<TRIPOS>BOND
     1    36    37    1
     2    37    24    1
     3    24    25   ar
     4    25    26   ar
     5    26     1    1
     6     1     2   ar
     7     2     3   ar
     8     3     6    1
     9     6     7    1
    10     7     8    1
    11     8     9    1
    12     9    10   ar
    13    10    11    1
    14    10    12   ar
    15    12    13   ar
    16    13    14   ar
    17    14    15   ar
    18    15    16    1
    19    16    19    1
    20    19    20    1
    21    20    21    1
    22    20    22    1
    23    20    23    1
    24    16    17   am
    25    17    18    2
    26     3     4   ar
    27     4     5   ar
    28    26    27   ar
    29    27    28   ar
    30    28    29   ar
    31    29    30    1
    32    30    31   ar
    33    31    32   ar
    34    32    33   ar
    35    33    34    1
    36    33    35   ar
    37    29    24   ar
    38    35    30   ar
    39     5     1   ar
    40    17     6    1
    41    15     9   ar
@<TRIPOS>MOLECULE
*****
 37 41 0 0 0
SMALL
GASTEIGER

@<TRIPOS>ATOM
      1 C         139.7152  138.9717  161.1679 C.ar    1  UNL1        0.1233
      2 C         139.7441  139.9384  162.3145 C.ar    1  UNL1        0.1180
      3 N         140.2022  139.1963  163.5350 N.ar    1  UNL1       -0.2233
      4 N         140.4565  137.7711  163.1426 N.ar    1  UNL1       -0.0634
      5 N         140.1555  137.6322  161.6797 N.ar    1  UNL1       -0.1287
      6 C         140.3757  139.7775  164.9069 C.3     1  UNL1        0.1834
      7 C         139.2947  139.4498  165.8939 C.3     1  UNL1        0.0386
      8 C         139.1783  139.8733  167.3282 C.3     1  UNL1        0.0324
      9 C         140.1140  140.7289  168.1297 C.ar    1  UNL1        0.0190
     10 C         139.6226  140.9104  169.5352 C.ar    1  UNL1        0.1373
     11 F         138.3393  140.2669  169.9701 F       1  UNL1       -0.2045
     12 C         140.4144  141.7355  170.5059 C.ar    1  UNL1        0.0294
     13 C         141.6977  142.3791  170.0710 C.ar    1  UNL1        0.0036
     14 C         142.1891  142.1976  168.6655 C.ar    1  UNL1        0.0147
     15 C         141.3973  141.3725  167.6949 C.ar    1  UNL1        0.0523
     16 N         142.0617  141.3193  166.3511 N.am    1  UNL1       -0.2491
     17 C         141.6071  140.6095  165.1103 C.2     1  UNL1        0.2520
     18 O         142.3815  140.6450  163.8262 O.2     1  UNL1       -0.2724
     19 C         143.3514  142.0761  166.2324 C.3     1  UNL1        0.2016
     20 C         143.4273  143.2972  165.3645 C.3     1  UNL1        0.4160
     21 F         143.5032  144.5183  164.4967 F       1  UNL1       -0.1682
     22 F         141.9505  143.5368  165.2565 F       1  UNL1       -0.1682
     23 F         144.9246  143.2058  165.3669 F       1  UNL1       -0.1682
     24 C         139.5556  138.8739  157.2037 C.ar    1  UNL1        0.1547
     25 C         139.9548  138.5567  158.6144 C.ar    1  UNL1        0.0400
     26 C         139.3161  139.2889  159.7572 C.ar    1  UNL1        0.0241
     27 C         138.2782  140.3382  159.4893 C.ar    1  UNL1        0.0033
     28 C         137.8791  140.6554  158.0786 C.ar    1  UNL1        0.0207
     29 C         138.5178  139.9233  156.9359 C.ar    1  UNL1        0.0994
     30 N         138.1186  140.2405  155.5251 N.ar    1  UNL1       -0.2839
     31 C         138.8704  141.1230  154.5733 C.ar    1  UNL1        0.1826
     32 N         138.1140  141.1588  153.2786 N.ar    1  UNL1       -0.2280
     33 C         136.8947  140.2984  153.4301 C.ar    1  UNL1        0.0786
     34 C         135.8550  140.0493  152.3779 C.3     1  UNL1        0.0538
     35 C         136.8975  139.7308  154.8185 C.ar    1  UNL1        0.0963
     36 C         139.5556  136.8989  155.5157 C.3     1  UNL1        0.2525
     37 O         140.1943  138.1418  156.0609 O.3     1  UNL1       -0.4700
@<TRIPOS>BOND
     1    36    37    1
     2    37    24    1
     3    24    25   ar
     4    25    26   ar
     5    26     1    1
     6     1     2   ar
     7     2     3   ar
     8     3     6    1
     9     6     7    1
    10     7     8    1
    11     8     9    1
    12     9    10   ar
    13    10    11    1
    14    10    12   ar
    15    12    13   ar
    16    13    14   ar
    17    14    15   ar
    18    15    16    1
    19    16    19    1
    20    19    20    1
    21    20    21    1
    22    20    22    1
    23    20    23    1
    24    16    17   am
    25    17    18    2
    26     3     4   ar
    27     4     5   ar
    28    26    27   ar
    29    27    28   ar
    30    28    29   ar
    31    29    30    1
    32    30    31   ar
    33    31    32   ar
    34    32    33   ar
    35    33    34    1
    36    33    35   ar
    37    29    24   ar
    38    35    30   ar
    39     5     1   ar
    40    17     6    1
    41    15     9   ar
