@<TRIPOS>MOLECULE
*****
 28 30 0 0 0
SMALL
GASTEIGER

@<TRIPOS>ATOM
      1 N         138.3522  138.9238  167.4890 N.pl3   1  UNL1       -0.3414
      2 C         138.9913  138.7917  166.1384 C.ar    1  UNL1        0.1432
      3 N         138.3509  137.9359  165.0861 N.ar    1  UNL1       -0.2265
      4 C         138.9899  137.8039  163.7355 C.ar    1  UNL1        0.1193
      5 C         140.2694  138.5276  163.4372 C.ar    1  UNL1        0.1005
      6 N         140.9098  139.3834  164.4895 N.ar    1  UNL1       -0.2410
      7 C         140.2707  139.5155  165.8401 C.ar    1  UNL1        0.1123
      8 H         137.5124  138.4487  167.6848 H       1  UNL1        0.1438
      9 H         138.7725  139.4855  168.1797 H       1  UNL1        0.1438
     10 C         140.9085  138.3956  162.0866 C.ar    1  UNL1        0.0192
     11 C         140.1422  138.7741  160.8540 C.ar    1  UNL1        0.0016
     12 C         140.7813  138.6421  159.5034 C.ar    1  UNL1        0.0012
     13 C         142.1867  138.1315  159.3854 C.ar    1  UNL1        0.0140
     14 C         142.9531  137.7530  160.6180 C.ar    1  UNL1        0.0012
     15 C         142.3140  137.8851  161.9686 C.ar    1  UNL1        0.0016
     16 C         142.8258  137.9995  158.0348 C.2     1  UNL1        0.0729
     17 O         142.5312  136.8031  157.1794 O.co2   1  UNL1       -0.5446
     18 O         143.7595  139.0639  157.5396 O.co2   1  UNL1       -0.5446
     19 C         140.9112  140.3713  166.8925 C.ar    1  UNL1        0.0204
     20 C         140.4195  141.7695  167.1237 C.ar    1  UNL1        0.0015
     21 C         141.0599  142.6253  168.1760 C.ar    1  UNL1        0.0039
     22 C         142.1921  142.0831  168.9971 C.ar    1  UNL1        0.0714
     23 C         142.6838  140.6849  168.7659 C.ar    1  UNL1        0.0039
     24 C         142.0433  139.8291  167.7136 C.ar    1  UNL1        0.0015
     25 C         142.8325  142.9389  170.0494 C.3     1  UNL1        0.4186
     26 F         143.4729  143.7948  171.1017 F       1  UNL1       -0.1659
     27 F         144.0706  142.0947  169.9826 F       1  UNL1       -0.1659
     28 F         141.5945  143.7831  170.1163 F       1  UNL1       -0.1659
@<TRIPOS>UNITY_ATOM_ATTR
17 1
charge -1
@<TRIPOS>BOND
     1     1     2    1
     2     2     3   ar
     3     3     4   ar
     4     4     5   ar
     5     5    10    1
     6    10    11   ar
     7    11    12   ar
     8    12    13   ar
     9    13    16    1
    10    16    17   ar
    11    16    18   ar
    12    13    14   ar
    13    14    15   ar
    14     5     6   ar
    15     6     7   ar
    16     7    19    1
    17    19    20   ar
    18    20    21   ar
    19    21    22   ar
    20    22    25    1
    21    25    26    1
    22    25    27    1
    23    25    28    1
    24    22    23   ar
    25    23    24   ar
    26     7     2   ar
    27    24    19   ar
    28    15    10   ar
    29     1     8    1
    30     1     9    1
@<TRIPOS>MOLECULE
*****
 28 30 0 0 0
SMALL
GASTEIGER

@<TRIPOS>ATOM
      1 N         139.4044  137.7195  161.4777 N.pl3   1  UNL1       -0.3414
      2 C         139.5138  138.4594  162.7780 C.ar    1  UNL1        0.1432
      3 N         138.5880  138.1267  163.9103 N.ar    1  UNL1       -0.2265
      4 C         138.6974  138.8666  165.2106 C.ar    1  UNL1        0.1193
      5 C         139.7325  139.9391  165.3785 C.ar    1  UNL1        0.1005
      6 N         140.6583  140.2717  164.2461 N.ar    1  UNL1       -0.2410
      7 C         140.5489  139.5318  162.9459 C.ar    1  UNL1        0.1123
      8 H         138.7250  137.0156  161.3675 H       1  UNL1        0.1438
      9 H         140.0120  137.9378  160.7345 H       1  UNL1        0.1438
     10 C         139.8419  140.6789  166.6787 C.ar    1  UNL1        0.0192
     11 C         139.4750  139.9965  167.9631 C.ar    1  UNL1        0.0016
     12 C         139.5844  140.7364  169.2633 C.ar    1  UNL1        0.0012
     13 C         140.0607  142.1587  169.2792 C.ar    1  UNL1        0.0140
     14 C         140.4276  142.8411  167.9948 C.ar    1  UNL1        0.0012
     15 C         140.3182  142.1012  166.6946 C.ar    1  UNL1        0.0016
     16 C         140.1701  142.8985  170.5795 C.2     1  UNL1        0.0729
     17 O         140.5271  142.1597  171.8351 O.co2   1  UNL1       -0.5446
     18 O         139.9224  144.3772  170.6241 O.co2   1  UNL1       -0.5446
     19 C         141.4747  139.8645  161.8134 C.ar    1  UNL1        0.0204
     20 C         141.1376  140.9835  160.8731 C.ar    1  UNL1        0.0015
     21 C         142.0634  141.3162  159.7408 C.ar    1  UNL1        0.0039
     22 C         143.3263  140.5299  159.5487 C.ar    1  UNL1        0.0714
     23 C         143.6634  139.4109  160.4890 C.ar    1  UNL1        0.0039
     24 C         142.7376  139.0782  161.6214 C.ar    1  UNL1        0.0015
     25 C         144.2520  140.8626  158.4163 C.3     1  UNL1        0.4186
     26 F         145.1778  141.1953  157.2840 F       1  UNL1       -0.1659
     27 F         143.7558  139.6665  157.6593 F       1  UNL1       -0.1659
     28 F         144.7482  142.0587  159.1734 F       1  UNL1       -0.1659
@<TRIPOS>UNITY_ATOM_ATTR
17 1
charge -1
@<TRIPOS>BOND
     1     1     2    1
     2     2     3   ar
     3     3     4   ar
     4     4     5   ar
     5     5    10    1
     6    10    11   ar
     7    11    12   ar
     8    12    13   ar
     9    13    16    1
    10    16    17   ar
    11    16    18   ar
    12    13    14   ar
    13    14    15   ar
    14     5     6   ar
    15     6     7   ar
    16     7    19    1
    17    19    20   ar
    18    20    21   ar
    19    21    22   ar
    20    22    25    1
    21    25    26    1
    22    25    27    1
    23    25    28    1
    24    22    23   ar
    25    23    24   ar
    26     7     2   ar
    27    24    19   ar
    28    15    10   ar
    29     1     8    1
    30     1     9    1
@<TRIPOS>MOLECULE
*****
 28 30 0 0 0
SMALL
GASTEIGER

@<TRIPOS>ATOM
      1 N         138.9048  137.9084  161.4017 N.pl3   1  UNL1       -0.3414
      2 C         139.0891  138.5547  162.7427 C.ar    1  UNL1        0.1432
      3 N         138.9516  137.7388  163.9938 N.ar    1  UNL1       -0.2265
      4 C         139.1359  138.3851  165.3348 C.ar    1  UNL1        0.1193
      5 C         139.4578  139.8473  165.4247 C.ar    1  UNL1        0.1005
      6 N         139.5954  140.6633  164.1737 N.ar    1  UNL1       -0.2410
      7 C         139.4111  140.0169  162.8327 C.ar    1  UNL1        0.1123
      8 H         138.6935  136.9486  161.3427 H       1  UNL1        0.1438
      9 H         138.9951  138.4439  160.5806 H       1  UNL1        0.1438
     10 C         139.6422  140.4936  166.7657 C.ar    1  UNL1        0.0192
     11 C         139.1825  139.7889  168.0075 C.ar    1  UNL1        0.0016
     12 C         139.3668  140.4353  169.3485 C.ar    1  UNL1        0.0012
     13 C         140.0109  141.7863  169.4478 C.ar    1  UNL1        0.0140
     14 C         140.4707  142.4909  168.2060 C.ar    1  UNL1        0.0012
     15 C         140.2863  141.8446  166.8650 C.ar    1  UNL1        0.0016
     16 C         140.1953  142.4326  170.7888 C.2     1  UNL1        0.0729
     17 O         139.1617  143.3865  171.3100 O.co2   1  UNL1       -0.5446
     18 O         141.4132  142.1250  171.6085 O.co2   1  UNL1       -0.5446
     19 C         139.5486  140.8330  161.5815 C.ar    1  UNL1        0.0204
     20 C         138.3492  141.5190  160.9979 C.ar    1  UNL1        0.0015
     21 C         138.4867  142.3350  159.7468 C.ar    1  UNL1        0.0039
     22 C         139.8238  142.4650  159.0793 C.ar    1  UNL1        0.0714
     23 C         141.0232  141.7790  159.6630 C.ar    1  UNL1        0.0039
     24 C         140.8856  140.9630  160.9141 C.ar    1  UNL1        0.0015
     25 C         139.9613  143.2810  157.8283 C.3     1  UNL1        0.4186
     26 F         140.0988  144.0970  156.5772 F       1  UNL1       -0.1659
     27 F         140.1330  142.0243  157.0275 F       1  UNL1       -0.1659
     28 F         139.7895  144.5376  158.6290 F       1  UNL1       -0.1659
@<TRIPOS>UNITY_ATOM_ATTR
17 1
charge -1
@<TRIPOS>BOND
     1     1     2    1
     2     2     3   ar
     3     3     4   ar
     4     4     5   ar
     5     5    10    1
     6    10    11   ar
     7    11    12   ar
     8    12    13   ar
     9    13    16    1
    10    16    17   ar
    11    16    18   ar
    12    13    14   ar
    13    14    15   ar
    14     5     6   ar
    15     6     7   ar
    16     7    19    1
    17    19    20   ar
    18    20    21   ar
    19    21    22   ar
    20    22    25    1
    21    25    26    1
    22    25    27    1
    23    25    28    1
    24    22    23   ar
    25    23    24   ar
    26     7     2   ar
    27    24    19   ar
    28    15    10   ar
    29     1     8    1
    30     1     9    1
@<TRIPOS>MOLECULE
*****
 28 30 0 0 0
SMALL
GASTEIGER

@<TRIPOS>ATOM
      1 N         145.1731  142.8790  161.7681 N.pl3   1  UNL1       -0.3414
      2 C         144.4942  142.6154  163.0794 C.ar    1  UNL1        0.1432
      3 N         144.7416  143.5229  164.2478 N.ar    1  UNL1       -0.2265
      4 C         144.0627  143.2593  165.5592 C.ar    1  UNL1        0.1193
      5 C         143.1364  142.0883  165.7021 C.ar    1  UNL1        0.1005
      6 N         142.8889  141.1808  164.5337 N.ar    1  UNL1       -0.2410
      7 C         143.5678  141.4444  163.2224 C.ar    1  UNL1        0.1123
      8 H         145.7811  143.6476  161.6743 H       1  UNL1        0.1438
      9 H         145.0107  142.2834  161.0012 H       1  UNL1        0.1438
     10 C         142.4575  141.8248  167.0135 C.ar    1  UNL1        0.0192
     11 C         143.1370  142.1966  168.2979 C.ar    1  UNL1        0.0016
     12 C         142.4581  141.9330  169.6093 C.ar    1  UNL1        0.0012
     13 C         141.0996  141.2976  169.6361 C.ar    1  UNL1        0.0140
     14 C         140.4201  140.9258  168.3517 C.ar    1  UNL1        0.0012
     15 C         141.0990  141.1894  167.0403 C.ar    1  UNL1        0.0016
     16 C         140.4207  141.0341  170.9475 C.2     1  UNL1        0.0729
     17 O         140.4719  142.0622  172.0385 O.co2   1  UNL1       -0.5446
     18 O         139.6907  139.7424  171.1678 O.co2   1  UNL1       -0.5446
     19 C         143.3203  140.5368  162.0539 C.ar    1  UNL1        0.0204
     20 C         142.2947  140.9044  161.0229 C.ar    1  UNL1        0.0015
     21 C         142.0471  139.9969  159.8545 C.ar    1  UNL1        0.0039
     22 C         142.8253  138.7218  159.7171 C.ar    1  UNL1        0.0714
     23 C         143.8509  138.3543  160.7481 C.ar    1  UNL1        0.0039
     24 C         144.0984  139.2619  161.9166 C.ar    1  UNL1        0.0015
     25 C         142.5777  137.8144  158.5487 C.3     1  UNL1        0.4186
     26 F         142.3302  136.9069  157.3803 F       1  UNL1       -0.1659
     27 F         142.0869  138.9823  157.7456 F       1  UNL1       -0.1659
     28 F         143.0686  136.6465  159.3518 F       1  UNL1       -0.1659
@<TRIPOS>UNITY_ATOM_ATTR
17 1
charge -1
@<TRIPOS>BOND
     1     1     2    1
     2     2     3   ar
     3     3     4   ar
     4     4     5   ar
     5     5    10    1
     6    10    11   ar
     7    11    12   ar
     8    12    13   ar
     9    13    16    1
    10    16    17   ar
    11    16    18   ar
    12    13    14   ar
    13    14    15   ar
    14     5     6   ar
    15     6     7   ar
    16     7    19    1
    17    19    20   ar
    18    20    21   ar
    19    21    22   ar
    20    22    25    1
    21    25    26    1
    22    25    27    1
    23    25    28    1
    24    22    23   ar
    25    23    24   ar
    26     7     2   ar
    27    24    19   ar
    28    15    10   ar
    29     1     8    1
    30     1     9    1
@<TRIPOS>MOLECULE
*****
 28 30 0 0 0
SMALL
GASTEIGER

@<TRIPOS>ATOM
      1 N         138.9201  139.7483  170.3714 N.pl3   1  UNL1       -0.3414
      2 C         138.8638  139.6746  168.8742 C.ar    1  UNL1        0.1432
      3 N         137.7882  138.8734  168.2026 N.ar    1  UNL1       -0.2265
      4 C         137.7320  138.7997  166.7055 C.ar    1  UNL1        0.1193
      5 C         138.7514  139.5272  165.8800 C.ar    1  UNL1        0.1005
      6 N         139.8270  140.3284  166.5516 N.ar    1  UNL1       -0.2410
      7 C         139.8832  140.4021  168.0487 C.ar    1  UNL1        0.1123
      8 H         138.2510  139.2707  170.9132 H       1  UNL1        0.1438
      9 H         139.6261  140.2741  170.8121 H       1  UNL1        0.1438
     10 C         138.6951  139.4535  164.3828 C.ar    1  UNL1        0.0192
     11 C         138.5081  140.7047  163.5768 C.ar    1  UNL1        0.0016
     12 C         138.4518  140.6310  162.0797 C.ar    1  UNL1        0.0012
     13 C         138.5826  139.3062  161.3886 C.ar    1  UNL1        0.0140
     14 C         138.7697  138.0551  162.1945 C.ar    1  UNL1        0.0012
     15 C         138.8259  138.1287  163.6917 C.ar    1  UNL1        0.0016
     16 C         138.5264  139.2325  159.8914 C.2     1  UNL1        0.0729
     17 O         137.4606  139.9771  159.1434 O.co2   1  UNL1       -0.5446
     18 O         139.5359  138.4142  159.1423 O.co2   1  UNL1       -0.5446
     19 C         140.9589  141.2034  168.7203 C.ar    1  UNL1        0.0204
     20 C         142.3200  140.6076  168.9261 C.ar    1  UNL1        0.0015
     21 C         143.3957  141.4087  169.5977 C.ar    1  UNL1        0.0039
     22 C         143.1103  142.8058  170.0634 C.ar    1  UNL1        0.0714
     23 C         141.7491  143.4016  169.8576 C.ar    1  UNL1        0.0039
     24 C         140.6734  142.6003  169.1860 C.ar    1  UNL1        0.0015
     25 C         144.1859  143.6070  170.7350 C.3     1  UNL1        0.4186
     26 F         145.2616  144.4081  171.4065 F       1  UNL1       -0.1659
     27 F         145.2247  142.6799  170.1770 F       1  UNL1       -0.1659
     28 F         143.1471  144.5340  171.2929 F       1  UNL1       -0.1659
@<TRIPOS>UNITY_ATOM_ATTR
17 1
charge -1
@<TRIPOS>BOND
     1     1     2    1
     2     2     3   ar
     3     3     4   ar
     4     4     5   ar
     5     5    10    1
     6    10    11   ar
     7    11    12   ar
     8    12    13   ar
     9    13    16    1
    10    16    17   ar
    11    16    18   ar
    12    13    14   ar
    13    14    15   ar
    14     5     6   ar
    15     6     7   ar
    16     7    19    1
    17    19    20   ar
    18    20    21   ar
    19    21    22   ar
    20    22    25    1
    21    25    26    1
    22    25    27    1
    23    25    28    1
    24    22    23   ar
    25    23    24   ar
    26     7     2   ar
    27    24    19   ar
    28    15    10   ar
    29     1     8    1
    30     1     9    1
@<TRIPOS>MOLECULE
*****
 28 30 0 0 0
SMALL
GASTEIGER

@<TRIPOS>ATOM
      1 N         137.0596  142.6122  164.2797 N.pl3   1  UNL1       -0.3414
      2 C         137.8822  141.8547  163.2800 C.ar    1  UNL1        0.1432
      3 N         137.6571  142.0630  161.8117 N.ar    1  UNL1       -0.2265
      4 C         138.4797  141.3054  160.8119 C.ar    1  UNL1        0.1193
      5 C         139.5273  140.3396  161.2805 C.ar    1  UNL1        0.1005
      6 N         139.7524  140.1314  162.7487 N.ar    1  UNL1       -0.2410
      7 C         138.9298  140.8889  163.7485 C.ar    1  UNL1        0.1123
      8 H         136.3720  143.2461  163.9722 H       1  UNL1        0.1438
      9 H         137.2073  142.4755  165.2434 H       1  UNL1        0.1438
     10 C         140.3499  139.5821  160.2807 C.ar    1  UNL1        0.0192
     11 C         139.7217  139.0923  159.0097 C.ar    1  UNL1        0.0016
     12 C         140.5443  138.3348  158.0099 C.ar    1  UNL1        0.0012
     13 C         141.9951  138.0670  158.2812 C.ar    1  UNL1        0.0140
     14 C         142.6232  138.5568  159.5522 C.ar    1  UNL1        0.0012
     15 C         141.8006  139.3143  160.5520 C.ar    1  UNL1        0.0016
     16 C         142.8176  137.3095  157.2814 C.2     1  UNL1        0.0729
     17 O         142.6243  135.8311  157.1173 O.co2   1  UNL1       -0.5446
     18 O         143.8336  138.0303  156.4459 O.co2   1  UNL1       -0.5446
     19 C         139.1550  140.6806  165.2169 C.ar    1  UNL1        0.0204
     20 C         138.4445  139.5715  165.9346 C.ar    1  UNL1        0.0015
     21 C         138.6696  139.3632  167.4029 C.ar    1  UNL1        0.0039
     22 C         139.6052  140.2639  168.1535 C.ar    1  UNL1        0.0714
     23 C         140.3157  141.3730  167.4357 C.ar    1  UNL1        0.0039
     24 C         140.0906  141.5813  165.9674 C.ar    1  UNL1        0.0015
     25 C         139.8303  140.0556  169.6218 C.3     1  UNL1        0.4186
     26 F         140.0554  139.8472  171.0900 F       1  UNL1       -0.1659
     27 F         138.4642  140.6045  169.9091 F       1  UNL1       -0.1659
     28 F         141.1963  139.5067  169.3345 F       1  UNL1       -0.1659
@<TRIPOS>UNITY_ATOM_ATTR
17 1
charge -1
@<TRIPOS>BOND
     1     1     2    1
     2     2     3   ar
     3     3     4   ar
     4     4     5   ar
     5     5    10    1
     6    10    11   ar
     7    11    12   ar
     8    12    13   ar
     9    13    16    1
    10    16    17   ar
    11    16    18   ar
    12    13    14   ar
    13    14    15   ar
    14     5     6   ar
    15     6     7   ar
    16     7    19    1
    17    19    20   ar
    18    20    21   ar
    19    21    22   ar
    20    22    25    1
    21    25    26    1
    22    25    27    1
    23    25    28    1
    24    22    23   ar
    25    23    24   ar
    26     7     2   ar
    27    24    19   ar
    28    15    10   ar
    29     1     8    1
    30     1     9    1
@<TRIPOS>MOLECULE
*****
 28 30 0 0 0
SMALL
GASTEIGER

@<TRIPOS>ATOM
      1 N         137.7105  144.3121  164.8827 N.pl3   1  UNL1       -0.3414
      2 C         138.7853  144.0443  163.8711 C.ar    1  UNL1        0.1432
      3 N         138.7601  144.7471  162.5462 N.ar    1  UNL1       -0.2265
      4 C         139.8349  144.4794  161.5347 C.ar    1  UNL1        0.1193
      5 C         140.9348  143.5089  161.8480 C.ar    1  UNL1        0.1005
      6 N         140.9600  142.8061  163.1729 N.ar    1  UNL1       -0.2410
      7 C         139.8852  143.0738  164.1845 C.ar    1  UNL1        0.1123
      8 H         136.9886  144.9490  164.6770 H       1  UNL1        0.1438
      9 H         137.7271  143.8508  165.7523 H       1  UNL1        0.1438
     10 C         142.0095  143.2411  160.8365 C.ar    1  UNL1        0.0192
     11 C         141.8608  143.7472  159.4323 C.ar    1  UNL1        0.0016
     12 C         142.9355  143.4795  158.4208 C.ar    1  UNL1        0.0012
     13 C         144.1590  142.7057  158.8134 C.ar    1  UNL1        0.0140
     14 C         144.3078  142.1996  160.2175 C.ar    1  UNL1        0.0012
     15 C         143.2330  142.4673  161.2291 C.ar    1  UNL1        0.0016
     16 C         145.2338  142.4379  157.8018 C.2     1  UNL1        0.0729
     17 O         144.9012  141.7239  156.5253 O.co2   1  UNL1       -0.5446
     18 O         146.6411  142.8842  158.0668 O.co2   1  UNL1       -0.5446
     19 C         139.9104  142.3710  165.5095 C.ar    1  UNL1        0.0204
     20 C         140.4856  143.0584  166.7122 C.ar    1  UNL1        0.0015
     21 C         140.5108  142.3556  168.0371 C.ar    1  UNL1        0.0039
     22 C         139.9609  140.9654  168.1593 C.ar    1  UNL1        0.0714
     23 C         139.3857  140.2780  166.9566 C.ar    1  UNL1        0.0039
     24 C         139.3605  140.9808  165.6316 C.ar    1  UNL1        0.0015
     25 C         139.9861  140.2626  169.4842 C.3     1  UNL1        0.4186
     26 F         140.0113  139.5598  170.8092 F       1  UNL1       -0.1659
     27 F         141.2107  139.5072  169.0603 F       1  UNL1       -0.1659
     28 F         138.7615  141.0179  169.9082 F       1  UNL1       -0.1659
@<TRIPOS>UNITY_ATOM_ATTR
17 1
charge -1
@<TRIPOS>BOND
     1     1     2    1
     2     2     3   ar
     3     3     4   ar
     4     4     5   ar
     5     5    10    1
     6    10    11   ar
     7    11    12   ar
     8    12    13   ar
     9    13    16    1
    10    16    17   ar
    11    16    18   ar
    12    13    14   ar
    13    14    15   ar
    14     5     6   ar
    15     6     7   ar
    16     7    19    1
    17    19    20   ar
    18    20    21   ar
    19    21    22   ar
    20    22    25    1
    21    25    26    1
    22    25    27    1
    23    25    28    1
    24    22    23   ar
    25    23    24   ar
    26     7     2   ar
    27    24    19   ar
    28    15    10   ar
    29     1     8    1
    30     1     9    1
@<TRIPOS>MOLECULE
*****
 28 30 0 0 0
SMALL
GASTEIGER

@<TRIPOS>ATOM
      1 N         141.1124  136.9802  164.4212 N.pl3   1  UNL1       -0.3414
      2 C         141.1307  138.2034  163.5532 C.ar    1  UNL1        0.1432
      3 N         141.2765  138.0661  162.0666 N.ar    1  UNL1       -0.2265
      4 C         141.2947  139.2893  161.1987 C.ar    1  UNL1        0.1193
      5 C         141.1671  140.6499  161.8172 C.ar    1  UNL1        0.1005
      6 N         141.0212  140.7872  163.3037 N.ar    1  UNL1       -0.2410
      7 C         141.0030  139.5640  164.1717 C.ar    1  UNL1        0.1123
      8 H         141.1962  136.0873  164.0152 H       1  UNL1        0.1438
      9 H         141.0167  137.0704  165.3969 H       1  UNL1        0.1438
     10 C         141.1853  141.8731  160.9492 C.ar    1  UNL1        0.0192
     11 C         140.9727  141.7462  159.4698 C.ar    1  UNL1        0.0016
     12 C         140.9909  142.9694  158.6018 C.ar    1  UNL1        0.0012
     13 C         141.2217  144.3195  159.2132 C.ar    1  UNL1        0.0140
     14 C         141.4343  144.4464  160.6926 C.ar    1  UNL1        0.0012
     15 C         141.4161  143.2232  161.5606 C.ar    1  UNL1        0.0016
     16 C         141.2399  145.5427  158.3452 C.2     1  UNL1        0.0729
     17 O         142.5457  146.1852  157.9819 O.co2   1  UNL1       -0.5446
     18 O         139.9523  146.1234  157.8404 O.co2   1  UNL1       -0.5446
     19 C         140.8571  139.7013  165.6583 C.ar    1  UNL1        0.0204
     20 C         142.0770  139.7696  166.5285 C.ar    1  UNL1        0.0015
     21 C         141.9311  139.9069  168.0150 C.ar    1  UNL1        0.0039
     22 C         140.5653  139.9761  168.6315 C.ar    1  UNL1        0.0714
     23 C         139.3454  139.9078  167.7613 C.ar    1  UNL1        0.0039
     24 C         139.4913  139.7704  166.2747 C.ar    1  UNL1        0.0015
     25 C         140.4195  140.1134  170.1180 C.3     1  UNL1        0.4186
     26 F         140.2737  140.2508  171.6045 F       1  UNL1       -0.1659
     27 F         141.4593  139.0510  170.3182 F       1  UNL1       -0.1659
     28 F         139.3797  141.1758  169.9178 F       1  UNL1       -0.1659
@<TRIPOS>UNITY_ATOM_ATTR
17 1
charge -1
@<TRIPOS>BOND
     1     1     2    1
     2     2     3   ar
     3     3     4   ar
     4     4     5   ar
     5     5    10    1
     6    10    11   ar
     7    11    12   ar
     8    12    13   ar
     9    13    16    1
    10    16    17   ar
    11    16    18   ar
    12    13    14   ar
    13    14    15   ar
    14     5     6   ar
    15     6     7   ar
    16     7    19    1
    17    19    20   ar
    18    20    21   ar
    19    21    22   ar
    20    22    25    1
    21    25    26    1
    22    25    27    1
    23    25    28    1
    24    22    23   ar
    25    23    24   ar
    26     7     2   ar
    27    24    19   ar
    28    15    10   ar
    29     1     8    1
    30     1     9    1
@<TRIPOS>MOLECULE
*****
 28 30 0 0 0
SMALL
GASTEIGER

@<TRIPOS>ATOM
      1 N         143.9987  144.9875  164.3850 N.pl3   1  UNL1       -0.3414
      2 C         143.7878  143.9029  163.3705 C.ar    1  UNL1        0.1432
      3 N         144.4701  143.9803  162.0369 N.ar    1  UNL1       -0.2265
      4 C         144.2591  142.8958  161.0225 C.ar    1  UNL1        0.1193
      5 C         143.3659  141.7338  161.3415 C.ar    1  UNL1        0.1005
      6 N         142.6836  141.6564  162.6751 N.ar    1  UNL1       -0.2410
      7 C         142.8945  142.7409  163.6896 C.ar    1  UNL1        0.1123
      8 H         144.5850  145.7502  164.1756 H       1  UNL1        0.1438
      9 H         143.5509  144.9367  165.2603 H       1  UNL1        0.1438
     10 C         143.1549  140.6492  160.3270 C.ar    1  UNL1        0.0192
     11 C         143.4530  140.9076  158.8798 C.ar    1  UNL1        0.0016
     12 C         143.2420  139.8231  157.8654 C.ar    1  UNL1        0.0012
     13 C         142.7331  138.4801  158.2980 C.ar    1  UNL1        0.0140
     14 C         142.4351  138.2216  159.7452 C.ar    1  UNL1        0.0012
     15 C         142.6460  139.3062  160.7597 C.ar    1  UNL1        0.0016
     16 C         142.5221  137.3955  157.2835 C.2     1  UNL1        0.0729
     17 O         143.7027  136.7125  156.6593 O.co2   1  UNL1       -0.5446
     18 O         141.1306  136.9939  156.8932 O.co2   1  UNL1       -0.5446
     19 C         142.2121  142.6635  165.0232 C.ar    1  UNL1        0.0204
     20 C         142.9327  142.0783  166.2014 C.ar    1  UNL1        0.0015
     21 C         142.2504  142.0008  167.5350 C.ar    1  UNL1        0.0039
     22 C         140.8475  142.5086  167.6904 C.ar    1  UNL1        0.0714
     23 C         140.1269  143.0938  166.5121 C.ar    1  UNL1        0.0039
     24 C         140.8093  143.1712  165.1785 C.ar    1  UNL1        0.0015
     25 C         140.1652  142.4311  169.0239 C.3     1  UNL1        0.4186
     26 F         139.4829  142.3536  170.3575 F       1  UNL1       -0.1659
     27 F         140.4829  143.8761  169.2704 F       1  UNL1       -0.1659
     28 F         139.8475  140.9860  168.7774 F       1  UNL1       -0.1659
@<TRIPOS>UNITY_ATOM_ATTR
17 1
charge -1
@<TRIPOS>BOND
     1     1     2    1
     2     2     3   ar
     3     3     4   ar
     4     4     5   ar
     5     5    10    1
     6    10    11   ar
     7    11    12   ar
     8    12    13   ar
     9    13    16    1
    10    16    17   ar
    11    16    18   ar
    12    13    14   ar
    13    14    15   ar
    14     5     6   ar
    15     6     7   ar
    16     7    19    1
    17    19    20   ar
    18    20    21   ar
    19    21    22   ar
    20    22    25    1
    21    25    26    1
    22    25    27    1
    23    25    28    1
    24    22    23   ar
    25    23    24   ar
    26     7     2   ar
    27    24    19   ar
    28    15    10   ar
    29     1     8    1
    30     1     9    1
