@<TRIPOS>MOLECULE
*****
 42 47 0 0 0
SMALL
GASTEIGER

@<TRIPOS>ATOM
      1 C         137.8408  143.0009  163.2637 C.3     1  UNL1        0.0932
      2 C         138.0323  142.8209  161.7869 C.3     1  UNL1        0.0286
      3 C         138.0343  141.4433  161.1933 C.3     1  UNL1        0.0193
      4 C         137.8449  140.2458  162.0765 C.3     1  UNL1        0.0700
      5 C         137.6534  140.4258  163.5533 C.3     1  UNL1        0.0193
      6 C         137.6514  141.8034  164.1469 C.3     1  UNL1        0.0286
      7 C         137.8364  140.9807  162.4475 C.3     1  UNL1        0.1562
      8 O         137.8345  142.2263  162.9843 O.3     1  UNL1       -0.3572
      9 N         137.8469  138.8682  161.4829 N.3     1  UNL1       -0.2926
     10 H         137.2554  138.9045  160.6527 H       1  UNL1        0.1236
     11 C         139.1402  138.2332  161.0658 C.3     1  UNL1        0.1152
     12 C         140.3506  138.3498  161.9440 C.ar    1  UNL1        0.0765
     13 C         140.5081  137.4428  163.1284 C.ar    1  UNL1        0.0193
     14 C         141.7185  137.5594  164.0066 C.ar    1  UNL1        0.0411
     15 C         142.7714  138.5830  163.7006 C.ar    1  UNL1        0.1708
     16 C         142.6139  139.4900  162.5163 C.ar    1  UNL1        0.1682
     17 N         141.4035  139.3734  161.6380 N.ar    1  UNL1       -0.2304
     18 N         143.6668  140.5136  162.2103 N.am    1  UNL1       -0.2639
     19 C         144.8772  140.6302  163.0885 C.2     1  UNL1        0.2718
     20 O         145.9301  141.6538  162.7825 O.2     1  UNL1       -0.2707
     21 C         145.0347  139.7232  164.2729 C.3     1  UNL1        0.2898
     22 O         143.9818  138.6996  164.5789 O.3     1  UNL1       -0.4628
     23 H         143.5635  141.1089  161.4330 H       1  UNL1        0.1565
     24 C         137.8388  144.3784  163.8573 C.3     1  UNL1        0.0320
     25 C         138.9369  144.7945  164.7907 C.3     1  UNL1        0.0327
     26 C         140.5840  141.5071  167.3849 C.ar    1  UNL1        0.2288
     27 N         140.0350  142.6029  166.5202 N.ar    1  UNL1       -0.2104
     28 C         140.8841  143.2008  165.4378 C.ar    1  UNL1        0.1001
     29 C         140.3350  144.2967  164.5731 C.ar    1  UNL1        0.0261
     30 C         141.1841  144.8946  163.4907 C.ar    1  UNL1        0.1566
     31 F         140.6351  145.9904  162.6259 F       1  UNL1       -0.2028
     32 C         142.5823  144.3967  163.2731 C.ar    1  UNL1        0.1281
     33 N         143.1313  143.3010  164.1379 N.ar    1  UNL1       -0.2400
     34 C         142.2822  142.7030  165.2202 C.ar    1  UNL1        0.0989
     35 C         142.8312  141.6073  166.0850 C.ar    1  UNL1        0.0292
     36 C         141.9821  141.0093  167.1673 C.ar    1  UNL1        0.1259
     37 C         142.5312  139.9135  168.0321 C.3     1  UNL1        0.4229
     38 F         143.0803  138.8178  168.8969 F       1  UNL1       -0.1657
     39 F         143.0075  140.9340  169.0229 F       1  UNL1       -0.1657
     40 F         142.0550  138.8929  167.0414 F       1  UNL1       -0.1657
     41 C         139.7403  141.5088  169.8422 C.3     1  UNL1        0.2542
     42 O         139.7349  140.9092  168.4673 O.3     1  UNL1       -0.4562
@<TRIPOS>BOND
     1    41    42    1
     2    42    26    1
     3    26    27   ar
     4    27    28   ar
     5    28    29   ar
     6    29    25    1
     7    25    24    1
     8    24     1    1
     9     1     2    1
    10     2     3    1
    11     3     4    1
    12     4     9    1
    13     9    11    1
    14    11    12    1
    15    12    13   ar
    16    13    14   ar
    17    14    15   ar
    18    15    16   ar
    19    16    17   ar
    20    16    18    1
    21    18    19   am
    22    19    20    2
    23    19    21    1
    24    21    22    1
    25     4     5    1
    26     5     6    1
    27     4     7    1
    28     7     8    1
    29    29    30   ar
    30    30    31    1
    31    30    32   ar
    32    32    33   ar
    33    33    34   ar
    34    34    35   ar
    35    35    36   ar
    36    36    37    1
    37    37    38    1
    38    37    39    1
    39    37    40    1
    40    36    26   ar
    41    34    28   ar
    42     6     1    1
    43     8     1    1
    44    17    12   ar
    45    22    15    1
    46     9    10    1
    47    18    23    1
@<TRIPOS>MOLECULE
*****
 42 47 0 0 0
SMALL
GASTEIGER

@<TRIPOS>ATOM
      1 C         144.5565  139.9719  163.5159 C.3     1  UNL1        0.0932
      2 C         144.1313  139.7594  162.0932 C.3     1  UNL1        0.0286
      3 C         143.0088  138.8155  161.7789 C.3     1  UNL1        0.0193
      4 C         142.3112  138.0841  162.8873 C.3     1  UNL1        0.0700
      5 C         142.7363  138.2966  164.3100 C.3     1  UNL1        0.0193
      6 C         143.8590  139.2405  164.6243 C.3     1  UNL1        0.0286
      7 C         142.9210  138.5911  163.1087 C.3     1  UNL1        0.1562
      8 O         143.9361  139.4446  163.3929 O.3     1  UNL1       -0.3572
      9 N         141.1886  137.1402  162.5730 N.3     1  UNL1       -0.2926
     10 H         141.0505  136.5608  163.4010 H       1  UNL1        0.1236
     11 C         139.8413  137.6779  162.1911 C.3     1  UNL1        0.1152
     12 C         139.3014  138.9006  162.8717 C.ar    1  UNL1        0.0765
     13 C         138.7323  138.7990  164.2559 C.ar    1  UNL1        0.0193
     14 C         138.1923  140.0217  164.9365 C.ar    1  UNL1        0.0411
     15 C         138.2214  141.3462  164.2329 C.ar    1  UNL1        0.1708
     16 C         138.7905  141.4479  162.8488 C.ar    1  UNL1        0.1682
     17 N         139.3305  140.2251  162.1682 N.ar    1  UNL1       -0.2304
     18 N         138.8195  142.7724  162.1453 N.am    1  UNL1       -0.2639
     19 C         138.2796  143.9951  162.8259 C.2     1  UNL1        0.2718
     20 O         138.3086  145.3196  162.1224 O.2     1  UNL1       -0.2707
     21 C         137.7105  143.8935  164.2101 C.3     1  UNL1        0.2898
     22 O         137.6814  142.5690  164.9136 O.3     1  UNL1       -0.4628
     23 H         139.1930  142.8391  161.2369 H       1  UNL1        0.1565
     24 C         145.6791  140.9157  163.8303 C.3     1  UNL1        0.0320
     25 C         145.3792  142.3219  164.2579 C.3     1  UNL1        0.0327
     26 C         142.5460  141.9263  167.7316 C.ar    1  UNL1        0.2288
     27 N         143.4903  142.0582  166.5737 N.ar    1  UNL1       -0.2104
     28 C         143.0374  142.7247  165.3086 C.ar    1  UNL1        0.1001
     29 C         143.9819  142.8566  164.1507 C.ar    1  UNL1        0.0261
     30 C         143.5289  143.5232  162.8856 C.ar    1  UNL1        0.1566
     31 F         144.4733  143.6551  161.7277 F       1  UNL1       -0.2028
     32 C         142.1315  144.0579  162.7784 C.ar    1  UNL1        0.1281
     33 N         141.1871  143.9260  163.9363 N.ar    1  UNL1       -0.2400
     34 C         141.6401  143.2594  165.2014 C.ar    1  UNL1        0.0989
     35 C         140.6957  143.1276  166.3593 C.ar    1  UNL1        0.0292
     36 C         141.1487  142.4610  167.6244 C.ar    1  UNL1        0.1259
     37 C         140.2042  142.3291  168.7823 C.3     1  UNL1        0.4229
     38 F         139.2598  142.1972  169.9401 F       1  UNL1       -0.1657
     39 F         139.7485  140.9992  168.2591 F       1  UNL1       -0.1657
     40 F         140.6598  143.6590  169.3054 F       1  UNL1       -0.1657
     41 C         143.7666  142.0400  170.0223 C.3     1  UNL1        0.2542
     42 O         142.9989  141.2597  168.9967 O.3     1  UNL1       -0.4562
@<TRIPOS>BOND
     1    41    42    1
     2    42    26    1
     3    26    27   ar
     4    27    28   ar
     5    28    29   ar
     6    29    25    1
     7    25    24    1
     8    24     1    1
     9     1     2    1
    10     2     3    1
    11     3     4    1
    12     4     9    1
    13     9    11    1
    14    11    12    1
    15    12    13   ar
    16    13    14   ar
    17    14    15   ar
    18    15    16   ar
    19    16    17   ar
    20    16    18    1
    21    18    19   am
    22    19    20    2
    23    19    21    1
    24    21    22    1
    25     4     5    1
    26     5     6    1
    27     4     7    1
    28     7     8    1
    29    29    30   ar
    30    30    31    1
    31    30    32   ar
    32    32    33   ar
    33    33    34   ar
    34    34    35   ar
    35    35    36   ar
    36    36    37    1
    37    37    38    1
    38    37    39    1
    39    37    40    1
    40    36    26   ar
    41    34    28   ar
    42     6     1    1
    43     8     1    1
    44    17    12   ar
    45    22    15    1
    46     9    10    1
    47    18    23    1
@<TRIPOS>MOLECULE
*****
 42 47 0 0 0
SMALL
GASTEIGER

@<TRIPOS>ATOM
      1 C         141.7978  138.0362  164.2765 C.3     1  UNL1        0.0932
      2 C         141.9848  138.4525  162.8476 C.3     1  UNL1        0.0286
      3 C         143.2102  139.2175  162.4436 C.3     1  UNL1        0.0193
      4 C         144.2485  139.5662  163.4684 C.3     1  UNL1        0.0700
      5 C         144.0615  139.1499  164.8973 C.3     1  UNL1        0.0193
      6 C         142.8361  138.3849  165.3013 C.3     1  UNL1        0.0286
      7 C         143.5937  139.1457  163.7374 C.3     1  UNL1        0.1562
      8 O         142.4857  138.4540  164.1028 O.3     1  UNL1       -0.3572
      9 N         145.4739  140.3312  163.0643 N.3     1  UNL1       -0.2926
     10 H         145.5646  140.2293  162.0535 H       1  UNL1        0.1236
     11 C         145.5746  141.7978  163.3625 C.3     1  UNL1        0.1152
     12 C         144.3654  142.6752  163.2286 C.ar    1  UNL1        0.0765
     13 C         143.6448  143.1514  164.4551 C.ar    1  UNL1        0.0193
     14 C         142.4356  144.0288  164.3213 C.ar    1  UNL1        0.0411
     15 C         141.9469  144.4300  162.9610 C.ar    1  UNL1        0.1708
     16 C         142.6675  143.9539  161.7346 C.ar    1  UNL1        0.1682
     17 N         143.8767  143.0764  161.8684 N.ar    1  UNL1       -0.2304
     18 N         142.1788  144.3551  160.3744 N.am    1  UNL1       -0.2639
     19 C         140.9696  145.2325  160.2406 C.2     1  UNL1        0.2718
     20 O         140.4809  145.6337  158.8804 O.2     1  UNL1       -0.2707
     21 C         140.2490  145.7087  161.4670 C.3     1  UNL1        0.2898
     22 O         140.7377  145.3074  162.8273 O.3     1  UNL1       -0.4628
     23 H         142.6517  144.0426  159.5695 H       1  UNL1        0.1565
     24 C         140.5725  137.2712  164.6806 C.3     1  UNL1        0.0320
     25 C         139.3370  138.0059  165.1094 C.3     1  UNL1        0.0327
     26 C         140.8371  140.7282  168.3634 C.ar    1  UNL1        0.2288
     27 N         140.3371  139.8208  167.2788 N.ar    1  UNL1       -0.2104
     28 C         139.7528  140.4014  166.0252 C.ar    1  UNL1        0.1001
     29 C         139.2528  139.4940  164.9405 C.ar    1  UNL1        0.0261
     30 C         138.6685  140.0746  163.6869 C.ar    1  UNL1        0.1566
     31 F         138.1684  139.1672  162.6022 F       1  UNL1       -0.2028
     32 C         138.5842  141.5628  163.5180 C.ar    1  UNL1        0.1281
     33 N         139.0843  142.4701  164.6027 N.ar    1  UNL1       -0.2400
     34 C         139.6685  141.8895  165.8563 C.ar    1  UNL1        0.0989
     35 C         140.1686  142.7969  166.9410 C.ar    1  UNL1        0.0292
     36 C         140.7529  142.2162  168.1946 C.ar    1  UNL1        0.1259
     37 C         141.2529  143.1237  169.2793 C.3     1  UNL1        0.4229
     38 F         141.7530  144.0311  170.3639 F       1  UNL1       -0.1657
     39 F         142.6629  142.8914  168.8235 F       1  UNL1       -0.1657
     40 F         139.8429  143.3559  169.7351 F       1  UNL1       -0.1657
     41 C         142.5589  139.1734  169.5331 C.3     1  UNL1        0.2542
     42 O         141.4214  140.1475  169.6170 O.3     1  UNL1       -0.4562
@<TRIPOS>BOND
     1    41    42    1
     2    42    26    1
     3    26    27   ar
     4    27    28   ar
     5    28    29   ar
     6    29    25    1
     7    25    24    1
     8    24     1    1
     9     1     2    1
    10     2     3    1
    11     3     4    1
    12     4     9    1
    13     9    11    1
    14    11    12    1
    15    12    13   ar
    16    13    14   ar
    17    14    15   ar
    18    15    16   ar
    19    16    17   ar
    20    16    18    1
    21    18    19   am
    22    19    20    2
    23    19    21    1
    24    21    22    1
    25     4     5    1
    26     5     6    1
    27     4     7    1
    28     7     8    1
    29    29    30   ar
    30    30    31    1
    31    30    32   ar
    32    32    33   ar
    33    33    34   ar
    34    34    35   ar
    35    35    36   ar
    36    36    37    1
    37    37    38    1
    38    37    39    1
    39    37    40    1
    40    36    26   ar
    41    34    28   ar
    42     6     1    1
    43     8     1    1
    44    17    12   ar
    45    22    15    1
    46     9    10    1
    47    18    23    1
@<TRIPOS>MOLECULE
*****
 42 47 0 0 0
SMALL
GASTEIGER

@<TRIPOS>ATOM
      1 C         141.0567  144.7942  162.9474 C.3     1  UNL1        0.0932
      2 C         141.2901  144.1116  161.6323 C.3     1  UNL1        0.0286
      3 C         142.6468  143.5637  161.3020 C.3     1  UNL1        0.0193
      4 C         143.7702  143.6983  162.2870 C.3     1  UNL1        0.0700
      5 C         143.5367  144.3808  163.6022 C.3     1  UNL1        0.0193
      6 C         142.1799  144.9288  163.9323 C.3     1  UNL1        0.0286
      7 C         143.0441  144.0144  162.5126 C.3     1  UNL1        0.1562
      8 O         141.8174  144.5098  162.8112 O.3     1  UNL1       -0.3572
      9 N         145.1269  143.1504  161.9568 N.3     1  UNL1       -0.2926
     10 H         145.7993  143.8923  162.1510 H       1  UNL1        0.1236
     11 C         145.6279  141.9191  162.6517 C.3     1  UNL1        0.1152
     12 C         144.6616  140.8574  163.0862 C.ar    1  UNL1        0.0765
     13 C         144.8428  140.1743  164.4093 C.ar    1  UNL1        0.0193
     14 C         143.8764  139.1126  164.8439 C.ar    1  UNL1        0.0411
     15 C         142.7288  138.7339  163.9554 C.ar    1  UNL1        0.1708
     16 C         142.5475  139.4170  162.6323 C.ar    1  UNL1        0.1682
     17 N         143.5139  140.4787  162.1977 N.ar    1  UNL1       -0.2304
     18 N         141.3998  139.0383  161.7438 N.am    1  UNL1       -0.2639
     19 C         140.4334  137.9766  162.1783 C.2     1  UNL1        0.2718
     20 O         139.2858  137.5980  161.2898 O.2     1  UNL1       -0.2707
     21 C         140.6147  137.2935  163.5014 C.3     1  UNL1        0.2898
     22 O         141.7624  137.6722  164.3900 O.3     1  UNL1       -0.4628
     23 H         141.2808  139.4866  160.8754 H       1  UNL1        0.1565
     24 C         139.7000  145.3421  163.2776 C.3     1  UNL1        0.0320
     25 C         138.8285  144.6369  164.2743 C.3     1  UNL1        0.0327
     26 C         140.6206  142.2064  167.6106 C.ar    1  UNL1        0.2288
     27 N         140.0232  143.0165  166.4985 N.ar    1  UNL1       -0.2104
     28 C         139.3207  142.3306  165.3646 C.ar    1  UNL1        0.1001
     29 C         138.7233  143.1408  164.2524 C.ar    1  UNL1        0.0261
     30 C         138.0207  142.4548  163.1185 C.ar    1  UNL1        0.1566
     31 F         137.4234  143.2649  162.0064 F       1  UNL1       -0.2028
     32 C         137.9155  140.9586  163.0967 C.ar    1  UNL1        0.1281
     33 N         138.5129  140.1485  164.2088 N.ar    1  UNL1       -0.2400
     34 C         139.2154  140.8344  165.3427 C.ar    1  UNL1        0.0989
     35 C         139.8128  140.0243  166.4548 C.ar    1  UNL1        0.0292
     36 C         140.5154  140.7103  167.5888 C.ar    1  UNL1        0.1259
     37 C         141.1127  139.9001  168.7009 C.3     1  UNL1        0.4229
     38 F         141.7100  139.0899  169.8130 F       1  UNL1       -0.1657
     39 F         139.8133  139.9665  169.4472 F       1  UNL1       -0.1657
     40 F         142.4122  139.8337  167.9546 F       1  UNL1       -0.1657
     41 C         140.5269  143.5332  169.8424 C.3     1  UNL1        0.2542
     42 O         141.3231  142.8924  168.7446 O.3     1  UNL1       -0.4562
@<TRIPOS>BOND
     1    41    42    1
     2    42    26    1
     3    26    27   ar
     4    27    28   ar
     5    28    29   ar
     6    29    25    1
     7    25    24    1
     8    24     1    1
     9     1     2    1
    10     2     3    1
    11     3     4    1
    12     4     9    1
    13     9    11    1
    14    11    12    1
    15    12    13   ar
    16    13    14   ar
    17    14    15   ar
    18    15    16   ar
    19    16    17   ar
    20    16    18    1
    21    18    19   am
    22    19    20    2
    23    19    21    1
    24    21    22    1
    25     4     5    1
    26     5     6    1
    27     4     7    1
    28     7     8    1
    29    29    30   ar
    30    30    31    1
    31    30    32   ar
    32    32    33   ar
    33    33    34   ar
    34    34    35   ar
    35    35    36   ar
    36    36    37    1
    37    37    38    1
    38    37    39    1
    39    37    40    1
    40    36    26   ar
    41    34    28   ar
    42     6     1    1
    43     8     1    1
    44    17    12   ar
    45    22    15    1
    46     9    10    1
    47    18    23    1
@<TRIPOS>MOLECULE
*****
 42 47 0 0 0
SMALL
GASTEIGER

@<TRIPOS>ATOM
      1 C         143.3684  138.8163  163.6835 C.3     1  UNL1        0.0932
      2 C         142.3750  138.3059  164.6848 C.3     1  UNL1        0.0286
      3 C         141.0727  137.7245  164.2201 C.3     1  UNL1        0.0193
      4 C         140.7637  137.6536  162.7539 C.3     1  UNL1        0.0700
      5 C         141.7571  138.1640  161.7526 C.3     1  UNL1        0.0193
      6 C         143.0595  138.7454  162.2174 C.3     1  UNL1        0.0286
      7 C         141.4905  137.9806  162.9607 C.3     1  UNL1        0.1562
      8 O         142.6681  138.5063  163.3809 O.3     1  UNL1       -0.3572
      9 N         139.4614  137.0723  162.2892 N.3     1  UNL1       -0.2926
     10 H         139.3449  136.1839  162.7765 H       1  UNL1        0.1236
     11 C         138.1871  137.8405  162.4786 C.3     1  UNL1        0.1152
     12 C         138.1780  139.3311  162.3118 C.ar    1  UNL1        0.0765
     13 C         138.2948  139.9333  160.9429 C.ar    1  UNL1        0.0193
     14 C         138.2858  141.4239  160.7760 C.ar    1  UNL1        0.0411
     15 C         138.1599  142.3124  161.9780 C.ar    1  UNL1        0.1708
     16 C         138.0431  141.7103  163.3468 C.ar    1  UNL1        0.1682
     17 N         138.0521  140.2196  163.5137 N.ar    1  UNL1       -0.2304
     18 N         137.9172  142.5988  164.5488 N.am    1  UNL1       -0.2639
     19 C         137.9081  144.0894  164.3819 C.2     1  UNL1        0.2718
     20 O         137.7822  144.9779  165.5839 O.2     1  UNL1       -0.2707
     21 C         138.0250  144.6916  163.0130 C.3     1  UNL1        0.2898
     22 O         138.1508  143.8031  161.8111 O.3     1  UNL1       -0.4628
     23 H         137.8405  142.2036  165.4472 H       1  UNL1        0.1565
     24 C         144.6707  139.3976  164.1482 C.3     1  UNL1        0.0320
     25 C         144.7759  140.8656  164.4379 C.3     1  UNL1        0.0327
     26 C         142.2928  141.4240  168.1490 C.ar    1  UNL1        0.2288
     27 N         143.1205  141.2379  166.9120 N.ar    1  UNL1       -0.2104
     28 C         142.7215  141.9141  165.6339 C.ar    1  UNL1        0.1001
     29 C         143.5493  141.7280  164.3969 C.ar    1  UNL1        0.0261
     30 C         143.1503  142.4042  163.1188 C.ar    1  UNL1        0.1566
     31 F         143.9780  142.2181  161.8817 F       1  UNL1       -0.2028
     32 C         141.9236  143.2666  163.0777 C.ar    1  UNL1        0.1281
     33 N         141.0960  143.4527  164.3148 N.ar    1  UNL1       -0.2400
     34 C         141.4949  142.7765  165.5929 C.ar    1  UNL1        0.0989
     35 C         140.6672  142.9626  166.8299 C.ar    1  UNL1        0.0292
     36 C         141.0662  142.2863  168.1080 C.ar    1  UNL1        0.1259
     37 C         140.2384  142.4724  169.3451 C.3     1  UNL1        0.4229
     38 F         139.4108  142.6586  170.5821 F       1  UNL1       -0.1657
     39 F         140.9717  143.7464  169.6439 F       1  UNL1       -0.1657
     40 F         139.5052  141.1985  169.0462 F       1  UNL1       -0.1657
     41 C         142.2123  139.3572  169.7213 C.3     1  UNL1        0.2542
     42 O         142.6917  140.7477  169.4271 O.3     1  UNL1       -0.4562
@<TRIPOS>BOND
     1    41    42    1
     2    42    26    1
     3    26    27   ar
     4    27    28   ar
     5    28    29   ar
     6    29    25    1
     7    25    24    1
     8    24     1    1
     9     1     2    1
    10     2     3    1
    11     3     4    1
    12     4     9    1
    13     9    11    1
    14    11    12    1
    15    12    13   ar
    16    13    14   ar
    17    14    15   ar
    18    15    16   ar
    19    16    17   ar
    20    16    18    1
    21    18    19   am
    22    19    20    2
    23    19    21    1
    24    21    22    1
    25     4     5    1
    26     5     6    1
    27     4     7    1
    28     7     8    1
    29    29    30   ar
    30    30    31    1
    31    30    32   ar
    32    32    33   ar
    33    33    34   ar
    34    34    35   ar
    35    35    36   ar
    36    36    37    1
    37    37    38    1
    38    37    39    1
    39    37    40    1
    40    36    26   ar
    41    34    28   ar
    42     6     1    1
    43     8     1    1
    44    17    12   ar
    45    22    15    1
    46     9    10    1
    47    18    23    1
@<TRIPOS>MOLECULE
*****
 42 47 0 0 0
SMALL
GASTEIGER

@<TRIPOS>ATOM
      1 C         137.9570  143.0042  162.8981 C.3     1  UNL1        0.0932
      2 C         137.7553  141.9230  163.9181 C.3     1  UNL1        0.0286
      3 C         137.7033  140.4868  163.4886 C.3     1  UNL1        0.0193
      4 C         137.8531  140.1317  162.0389 C.3     1  UNL1        0.0700
      5 C         138.0547  141.2128  161.0188 C.3     1  UNL1        0.0193
      6 C         138.1067  142.6491  161.4485 C.3     1  UNL1        0.0286
      7 C         137.8884  140.9327  162.2263 C.3     1  UNL1        0.1562
      8 O         137.9354  142.2314  162.6147 O.3     1  UNL1       -0.3572
      9 N         137.8011  138.6955  161.6093 N.3     1  UNL1       -0.2926
     10 H         137.1380  138.6433  160.8360 H       1  UNL1        0.1236
     11 C         139.0516  138.0028  161.1549 C.3     1  UNL1        0.1152
     12 C         140.3747  138.3722  161.7572 C.ar    1  UNL1        0.0765
     13 C         141.3869  139.1213  160.9422 C.ar    1  UNL1        0.0193
     14 C         142.7100  139.4907  161.5445 C.ar    1  UNL1        0.0411
     15 C         143.0210  139.1109  162.9619 C.ar    1  UNL1        0.1708
     16 C         142.0089  138.3619  163.7770 C.ar    1  UNL1        0.1682
     17 N         140.6857  137.9925  163.1747 N.ar    1  UNL1       -0.2304
     18 N         142.3198  137.9822  165.1944 N.am    1  UNL1       -0.2639
     19 C         143.6430  138.3515  165.7968 C.2     1  UNL1        0.2718
     20 O         143.9539  137.9718  167.2142 O.2     1  UNL1       -0.2707
     21 C         144.6552  139.1006  164.9817 C.3     1  UNL1        0.2898
     22 O         144.3442  139.4803  163.5643 O.3     1  UNL1       -0.4628
     23 H         141.6555  137.4905  165.7294 H       1  UNL1        0.1565
     24 C         138.0090  144.4404  163.3277 C.3     1  UNL1        0.0320
     25 C         139.2752  145.0071  163.8984 C.3     1  UNL1        0.0327
     26 C         140.8932  142.6739  167.3895 C.ar    1  UNL1        0.2288
     27 N         140.3539  143.4516  166.2258 N.ar    1  UNL1       -0.2104
     28 C         141.1028  143.4732  164.9263 C.ar    1  UNL1        0.1001
     29 C         140.5634  144.2510  163.7626 C.ar    1  UNL1        0.0261
     30 C         141.3124  144.2725  162.4632 C.ar    1  UNL1        0.1566
     31 F         140.7730  145.0503  161.2995 F       1  UNL1       -0.2028
     32 C         142.6007  143.5163  162.3274 C.ar    1  UNL1        0.1281
     33 N         143.1400  142.7385  163.4911 N.ar    1  UNL1       -0.2400
     34 C         142.3911  142.7170  164.7905 C.ar    1  UNL1        0.0989
     35 C         142.9304  141.9392  165.9542 C.ar    1  UNL1        0.0292
     36 C         142.1815  141.9177  167.2537 C.ar    1  UNL1        0.1259
     37 C         142.7209  141.1399  168.4174 C.3     1  UNL1        0.4229
     38 F         143.2603  140.3621  169.5810 F       1  UNL1       -0.1657
     39 F         141.8001  140.0035  168.0847 F       1  UNL1       -0.1657
     40 F         143.6418  142.2762  168.7501 F       1  UNL1       -0.1657
     41 C         140.4261  143.6904  169.7344 C.3     1  UNL1        0.2542
     42 O         140.1443  142.6523  168.6890 O.3     1  UNL1       -0.4562
@<TRIPOS>BOND
     1    41    42    1
     2    42    26    1
     3    26    27   ar
     4    27    28   ar
     5    28    29   ar
     6    29    25    1
     7    25    24    1
     8    24     1    1
     9     1     2    1
    10     2     3    1
    11     3     4    1
    12     4     9    1
    13     9    11    1
    14    11    12    1
    15    12    13   ar
    16    13    14   ar
    17    14    15   ar
    18    15    16   ar
    19    16    17   ar
    20    16    18    1
    21    18    19   am
    22    19    20    2
    23    19    21    1
    24    21    22    1
    25     4     5    1
    26     5     6    1
    27     4     7    1
    28     7     8    1
    29    29    30   ar
    30    30    31    1
    31    30    32   ar
    32    32    33   ar
    33    33    34   ar
    34    34    35   ar
    35    35    36   ar
    36    36    37    1
    37    37    38    1
    38    37    39    1
    39    37    40    1
    40    36    26   ar
    41    34    28   ar
    42     6     1    1
    43     8     1    1
    44    17    12   ar
    45    22    15    1
    46     9    10    1
    47    18    23    1
@<TRIPOS>MOLECULE
*****
 42 47 0 0 0
SMALL
GASTEIGER

@<TRIPOS>ATOM
      1 C         139.7563  138.2008  164.1802 C.3     1  UNL1        0.0932
      2 C         139.1240  139.0735  165.2236 C.3     1  UNL1        0.0286
      3 C         138.1693  140.1567  164.8172 C.3     1  UNL1        0.0193
      4 C         137.8469  140.3673  163.3674 C.3     1  UNL1        0.0700
      5 C         138.4792  139.4947  162.3241 C.3     1  UNL1        0.0193
      6 C         139.4340  138.4114  162.7305 C.3     1  UNL1        0.0286
      7 C         138.3760  139.7610  163.5417 C.3     1  UNL1        0.1562
      8 O         139.2393  138.7815  163.9091 O.3     1  UNL1       -0.3572
      9 N         136.8922  141.4505  162.9611 N.3     1  UNL1       -0.2926
     10 H         136.1150  141.4208  163.6210 H       1  UNL1        0.1236
     11 C         137.3560  142.8758  162.9022 C.3     1  UNL1        0.1152
     12 C         138.7827  143.1867  162.5589 C.ar    1  UNL1        0.0765
     13 C         139.2836  142.9647  161.1625 C.ar    1  UNL1        0.0193
     14 C         140.7103  143.2755  160.8192 C.ar    1  UNL1        0.0411
     15 C         141.6361  143.8084  161.8723 C.ar    1  UNL1        0.1708
     16 C         141.1353  144.0304  163.2686 C.ar    1  UNL1        0.1682
     17 N         139.7085  143.7195  163.6120 N.ar    1  UNL1       -0.2304
     18 N         142.0611  144.5632  164.3216 N.am    1  UNL1       -0.2639
     19 C         143.4878  144.8741  163.9783 C.2     1  UNL1        0.2718
     20 O         144.4136  145.4069  165.0314 O.2     1  UNL1       -0.2707
     21 C         143.9887  144.6521  162.5819 C.3     1  UNL1        0.2898
     22 O         143.0629  144.1192  161.5289 O.3     1  UNL1       -0.4628
     23 H         141.7324  144.7089  165.2381 H       1  UNL1        0.1565
     24 C         140.7110  137.1176  164.5865 C.3     1  UNL1        0.0320
     25 C         142.1763  137.4155  164.7067 C.3     1  UNL1        0.0327
     26 C         142.2278  140.2255  168.2211 C.ar    1  UNL1        0.2288
     27 N         142.2106  139.2889  167.0496 N.ar    1  UNL1       -0.2104
     28 C         142.6896  139.7574  165.7076 C.ar    1  UNL1        0.1001
     29 C         142.6724  138.8207  164.5361 C.ar    1  UNL1        0.0261
     30 C         143.1513  139.2893  163.1941 C.ar    1  UNL1        0.1566
     31 F         143.1342  138.3527  162.0226 F       1  UNL1       -0.2028
     32 C         143.6475  140.6946  163.0235 C.ar    1  UNL1        0.1281
     33 N         143.6646  141.6313  164.1950 N.ar    1  UNL1       -0.2400
     34 C         143.1857  141.1627  165.5370 C.ar    1  UNL1        0.0989
     35 C         143.2029  142.0993  166.7085 C.ar    1  UNL1        0.0292
     36 C         142.7239  141.6307  168.0505 C.ar    1  UNL1        0.1259
     37 C         142.7411  142.5675  169.2220 C.3     1  UNL1        0.4229
     38 F         142.7583  143.5042  170.3934 F       1  UNL1       -0.1657
     39 F         141.3628  143.0393  168.8649 F       1  UNL1       -0.1657
     40 F         144.1195  142.0957  169.5791 F       1  UNL1       -0.1657
     41 C         142.5569  138.7620  170.3423 C.3     1  UNL1        0.2542
     42 O         141.7489  139.7569  169.5631 O.3     1  UNL1       -0.4562
@<TRIPOS>BOND
     1    41    42    1
     2    42    26    1
     3    26    27   ar
     4    27    28   ar
     5    28    29   ar
     6    29    25    1
     7    25    24    1
     8    24     1    1
     9     1     2    1
    10     2     3    1
    11     3     4    1
    12     4     9    1
    13     9    11    1
    14    11    12    1
    15    12    13   ar
    16    13    14   ar
    17    14    15   ar
    18    15    16   ar
    19    16    17   ar
    20    16    18    1
    21    18    19   am
    22    19    20    2
    23    19    21    1
    24    21    22    1
    25     4     5    1
    26     5     6    1
    27     4     7    1
    28     7     8    1
    29    29    30   ar
    30    30    31    1
    31    30    32   ar
    32    32    33   ar
    33    33    34   ar
    34    34    35   ar
    35    35    36   ar
    36    36    37    1
    37    37    38    1
    38    37    39    1
    39    37    40    1
    40    36    26   ar
    41    34    28   ar
    42     6     1    1
    43     8     1    1
    44    17    12   ar
    45    22    15    1
    46     9    10    1
    47    18    23    1
@<TRIPOS>MOLECULE
*****
 42 47 0 0 0
SMALL
GASTEIGER

@<TRIPOS>ATOM
      1 C         143.9958  142.3553  163.0496 C.3     1  UNL1        0.0932
      2 C         143.4336  142.9534  164.3051 C.3     1  UNL1        0.0286
      3 C         142.4701  144.1001  164.2234 C.3     1  UNL1        0.0193
      4 C         142.0688  144.6488  162.8862 C.3     1  UNL1        0.0700
      5 C         142.6311  144.0507  161.6308 C.3     1  UNL1        0.0193
      6 C         143.5946  142.9039  161.7125 C.3     1  UNL1        0.0286
      7 C         142.5998  144.0195  162.8807 C.3     1  UNL1        0.1562
      8 O         143.4711  142.9826  162.9545 O.3     1  UNL1       -0.3572
      9 N         141.1053  145.7955  162.8046 N.3     1  UNL1       -0.2926
     10 H         141.2571  146.2438  161.9011 H       1  UNL1        0.1236
     11 C         139.6309  145.5460  162.9219 C.3     1  UNL1        0.1152
     12 C         139.0744  144.1853  162.6242 C.ar    1  UNL1        0.0765
     13 C         138.5229  143.3411  163.7347 C.ar    1  UNL1        0.0193
     14 C         137.9664  141.9804  163.4370 C.ar    1  UNL1        0.0411
     15 C         137.9614  141.4638  162.0287 C.ar    1  UNL1        0.1708
     16 C         138.5128  142.3079  160.9182 C.ar    1  UNL1        0.1682
     17 N         139.0694  143.6687  161.2159 N.ar    1  UNL1       -0.2304
     18 N         138.5078  141.7914  159.5100 N.am    1  UNL1       -0.2639
     19 C         137.9513  140.4307  159.2122 C.2     1  UNL1        0.2718
     20 O         137.9463  139.9141  157.8040 O.2     1  UNL1       -0.2707
     21 C         137.3998  139.5864  160.3228 C.3     1  UNL1        0.2898
     22 O         137.4048  140.1030  161.7310 O.3     1  UNL1       -0.4628
     23 H         138.8697  142.3455  158.7811 H       1  UNL1        0.1565
     24 C         144.9593  141.2086  163.1313 C.3     1  UNL1        0.0320
     25 C         144.4741  139.8488  163.5382 C.3     1  UNL1        0.0327
     26 C         140.7320  139.3315  165.9834 C.ar    1  UNL1        0.2288
     27 N         141.9793  139.5039  165.1683 N.ar    1  UNL1       -0.2104
     28 C         141.9929  139.1009  163.7235 C.ar    1  UNL1        0.1001
     29 C         143.2403  139.2733  162.9085 C.ar    1  UNL1        0.0261
     30 C         143.2538  138.8702  161.4637 C.ar    1  UNL1        0.1566
     31 F         144.5012  139.0426  160.6486 F       1  UNL1       -0.2028
     32 C         142.0200  138.2947  160.8340 C.ar    1  UNL1        0.1281
     33 N         140.7726  138.1223  161.6491 N.ar    1  UNL1       -0.2400
     34 C         140.7591  138.5254  163.0938 C.ar    1  UNL1        0.0989
     35 C         139.5118  138.3530  163.9089 C.ar    1  UNL1        0.0292
     36 C         139.4982  138.7561  165.3537 C.ar    1  UNL1        0.1259
     37 C         138.2508  138.5836  166.1688 C.3     1  UNL1        0.4229
     38 F         137.0034  138.4113  166.9838 F       1  UNL1       -0.1657
     39 F         138.0523  140.0704  166.1794 F       1  UNL1       -0.1657
     40 F         138.4492  137.0969  166.1581 F       1  UNL1       -0.1657
     41 C         141.0500  141.1450  167.8164 C.3     1  UNL1        0.2542
     42 O         140.7184  139.7346  167.4281 O.3     1  UNL1       -0.4562
@<TRIPOS>BOND
     1    41    42    1
     2    42    26    1
     3    26    27   ar
     4    27    28   ar
     5    28    29   ar
     6    29    25    1
     7    25    24    1
     8    24     1    1
     9     1     2    1
    10     2     3    1
    11     3     4    1
    12     4     9    1
    13     9    11    1
    14    11    12    1
    15    12    13   ar
    16    13    14   ar
    17    14    15   ar
    18    15    16   ar
    19    16    17   ar
    20    16    18    1
    21    18    19   am
    22    19    20    2
    23    19    21    1
    24    21    22    1
    25     4     5    1
    26     5     6    1
    27     4     7    1
    28     7     8    1
    29    29    30   ar
    30    30    31    1
    31    30    32   ar
    32    32    33   ar
    33    33    34   ar
    34    34    35   ar
    35    35    36   ar
    36    36    37    1
    37    37    38    1
    38    37    39    1
    39    37    40    1
    40    36    26   ar
    41    34    28   ar
    42     6     1    1
    43     8     1    1
    44    17    12   ar
    45    22    15    1
    46     9    10    1
    47    18    23    1
@<TRIPOS>MOLECULE
*****
 42 47 0 0 0
SMALL
GASTEIGER

@<TRIPOS>ATOM
      1 C         142.7353  144.2623  163.4753 C.3     1  UNL1        0.0932
      2 C         142.6528  143.9679  162.0068 C.3     1  UNL1        0.0286
      3 C         141.3165  143.9056  161.3282 C.3     1  UNL1        0.0193
      4 C         140.0627  144.1375  162.1183 C.3     1  UNL1        0.0700
      5 C         140.1451  144.4319  163.5868 C.3     1  UNL1        0.0193
      6 C         141.4815  144.4943  164.2653 C.3     1  UNL1        0.0286
      7 C         140.7721  144.1819  162.5339 C.3     1  UNL1        0.1562
      8 O         141.9804  144.2384  163.1474 O.3     1  UNL1       -0.3572
      9 N         138.7264  144.0751  161.4397 N.3     1  UNL1       -0.2926
     10 H         138.7987  144.6411  160.5943 H       1  UNL1        0.1236
     11 C         138.1561  142.7507  161.0267 C.3     1  UNL1        0.1152
     12 C         138.4943  141.5132  161.8039 C.ar    1  UNL1        0.0765
     13 C         139.3448  140.4457  161.1816 C.ar    1  UNL1        0.0193
     14 C         139.6831  139.2082  161.9589 C.ar    1  UNL1        0.0411
     15 C         139.1710  139.0382  163.3584 C.ar    1  UNL1        0.1708
     16 C         138.3205  140.1056  163.9807 C.ar    1  UNL1        0.1682
     17 N         137.9822  141.3431  163.2035 N.ar    1  UNL1       -0.2304
     18 N         137.8083  139.9355  165.3803 N.am    1  UNL1       -0.2639
     19 C         138.1466  138.6980  166.1575 C.2     1  UNL1        0.2718
     20 O         137.6345  138.5279  167.5571 O.2     1  UNL1       -0.2707
     21 C         138.9971  137.6305  165.5352 C.3     1  UNL1        0.2898
     22 O         139.5093  137.8006  164.1357 O.3     1  UNL1       -0.4628
     23 H         137.2502  140.6361  165.7887 H       1  UNL1        0.1565
     24 C         144.0716  144.3247  164.1538 C.3     1  UNL1        0.0320
     25 C         144.4367  143.3003  165.1869 C.3     1  UNL1        0.0327
     26 C         141.8694  141.9298  168.6192 C.ar    1  UNL1        0.2288
     27 N         142.7252  142.3866  167.4751 N.ar    1  UNL1       -0.2104
     28 C         142.9463  141.4847  166.2971 C.ar    1  UNL1        0.1001
     29 C         143.8021  141.9416  165.1530 C.ar    1  UNL1        0.0261
     30 C         144.0232  141.0397  163.9749 C.ar    1  UNL1        0.1566
     31 F         144.8789  141.4965  162.8308 F       1  UNL1       -0.2028
     32 C         143.3885  139.6810  163.9410 C.ar    1  UNL1        0.1281
     33 N         142.5327  139.2242  165.0851 N.ar    1  UNL1       -0.2400
     34 C         142.3116  140.1261  166.2631 C.ar    1  UNL1        0.0989
     35 C         141.4558  139.6693  167.4072 C.ar    1  UNL1        0.0292
     36 C         141.2347  140.5712  168.5852 C.ar    1  UNL1        0.1259
     37 C         140.3789  140.1143  169.7293 C.3     1  UNL1        0.4229
     38 F         139.5232  139.6574  170.8734 F       1  UNL1       -0.1657
     39 F         141.5651  139.4326  170.3443 F       1  UNL1       -0.1657
     40 F         139.1927  140.7960  169.1144 F       1  UNL1       -0.1657
     41 C         140.5045  143.8021  169.7946 C.3     1  UNL1        0.2542
     42 O         141.6483  142.8317  169.7972 O.3     1  UNL1       -0.4562
@<TRIPOS>BOND
     1    41    42    1
     2    42    26    1
     3    26    27   ar
     4    27    28   ar
     5    28    29   ar
     6    29    25    1
     7    25    24    1
     8    24     1    1
     9     1     2    1
    10     2     3    1
    11     3     4    1
    12     4     9    1
    13     9    11    1
    14    11    12    1
    15    12    13   ar
    16    13    14   ar
    17    14    15   ar
    18    15    16   ar
    19    16    17   ar
    20    16    18    1
    21    18    19   am
    22    19    20    2
    23    19    21    1
    24    21    22    1
    25     4     5    1
    26     5     6    1
    27     4     7    1
    28     7     8    1
    29    29    30   ar
    30    30    31    1
    31    30    32   ar
    32    32    33   ar
    33    33    34   ar
    34    34    35   ar
    35    35    36   ar
    36    36    37    1
    37    37    38    1
    38    37    39    1
    39    37    40    1
    40    36    26   ar
    41    34    28   ar
    42     6     1    1
    43     8     1    1
    44    17    12   ar
    45    22    15    1
    46     9    10    1
    47    18    23    1
