@<TRIPOS>MOLECULE
*****
 29 32 0 0 0
SMALL
GASTEIGER

@<TRIPOS>ATOM
      1 O         138.8433  143.9163  164.8425 O.2     1  UNL1       -0.2522
      2 C         140.0430  143.3428  164.1484 C.2     1  UNL1        0.3078
      3 N         140.8558  142.2734  164.8161 N.am    1  UNL1       -0.2681
      4 N         140.4300  143.8387  162.7866 N.am    1  UNL1       -0.2611
      5 C         139.6173  144.9080  162.1190 C.3     1  UNL1        0.1123
      6 C         140.0043  145.4039  160.7572 C.3     1  UNL1        0.0940
      7 N         141.2040  144.8304  160.0632 N.3     1  UNL1       -0.2697
      8 C         142.0168  143.7610  160.7309 C.3     1  UNL1        0.0940
      9 C         141.6298  143.2652  162.0926 C.3     1  UNL1        0.1123
     10 H         141.6432  141.8970  164.3606 H       1  UNL1        0.1564
     11 C         140.4688  141.7775  166.1779 C.ar    1  UNL1        0.0525
     12 C         139.7976  140.4445  166.3279 C.ar    1  UNL1        0.0156
     13 C         139.4106  139.9487  167.6896 C.ar    1  UNL1        0.0135
     14 C         139.6949  140.7858  168.9014 C.ar    1  UNL1        0.0683
     15 CL        139.3079  140.2899  170.2632 Cl      1  UNL1       -0.0814
     16 C         140.3662  142.1188  168.7514 C.ar    1  UNL1        0.0694
     17 CL        140.6505  142.9559  169.9632 Cl      1  UNL1       -0.0813
     18 C         140.7531  142.6146  167.3897 C.ar    1  UNL1        0.0270
     19 C         141.5910  145.3263  158.7014 C.3     1  UNL1        0.0735
     20 C         140.5809  145.3383  157.5926 C.3     1  UNL1        0.0320
     21 C         139.8568  144.0774  157.2240 C.3     1  UNL1        0.0042
     22 C         138.8467  144.0894  156.1152 C.3     1  UNL1        0.0174
     23 C         138.5607  145.3624  155.3749 C.3     1  UNL1        0.0721
     24 N         139.2847  146.6233  155.7436 N.3     1  UNL1       -0.2726
     25 C         140.2949  146.6112  156.8525 C.3     1  UNL1        0.0734
     26 C         138.9987  147.8962  155.0035 C.3     1  UNL1        0.0720
     27 C         138.6505  149.1427  155.7618 C.3     1  UNL1        0.0160
     28 C         138.3888  150.6195  155.7837 C.3     1  UNL1        0.0014
     29 C         138.3093  149.8249  157.0533 C.3     1  UNL1        0.0014
@<TRIPOS>BOND
     1     1     2    2
     2     2     3   am
     3     3    11    1
     4    11    12   ar
     5    12    13   ar
     6    13    14   ar
     7    14    15    1
     8    14    16   ar
     9    16    17    1
    10    16    18   ar
    11     2     4   am
    12     4     5    1
    13     5     6    1
    14     6     7    1
    15     7    19    1
    16    20    19    1
    17    20    21    1
    18    21    22    1
    19    22    23    1
    20    23    24    1
    21    24    26    1
    22    26    27    1
    23    27    28    1
    24    28    29    1
    25    24    25    1
    26     7     8    1
    27     8     9    1
    28    18    11   ar
    29     9     4    1
    30    25    20    1
    31    29    27    1
    32     3    10    1
@<TRIPOS>MOLECULE
*****
 29 32 0 0 0
SMALL
GASTEIGER

@<TRIPOS>ATOM
      1 O         139.5792  140.3247  157.2214 O.2     1  UNL1       -0.2522
      2 C         138.4726  140.2393  158.2305 C.2     1  UNL1        0.3078
      3 N         137.1316  140.8380  157.9254 N.am    1  UNL1       -0.2681
      4 N         138.7072  139.5551  159.5446 N.am    1  UNL1       -0.2611
      5 C         140.0482  138.9565  159.8497 C.3     1  UNL1        0.1123
      6 C         140.2827  138.2723  161.1638 C.3     1  UNL1        0.0940
      7 N         139.1761  138.1869  162.1729 N.3     1  UNL1       -0.2697
      8 C         137.8351  138.7856  161.8678 C.3     1  UNL1        0.0940
      9 C         137.6006  139.4697  160.5537 C.3     1  UNL1        0.1123
     10 H         136.4053  140.7819  158.5877 H       1  UNL1        0.1564
     11 C         136.8970  141.5222  156.6112 C.ar    1  UNL1        0.0525
     12 C         136.2749  140.7681  155.4736 C.ar    1  UNL1        0.0156
     13 C         136.0404  141.4522  154.1595 C.ar    1  UNL1        0.0135
     14 C         136.4280  142.8905  153.9831 C.ar    1  UNL1        0.0683
     15 CL        136.1935  143.5747  152.6689 Cl      1  UNL1       -0.0814
     16 C         137.0502  143.6446  155.1207 C.ar    1  UNL1        0.0694
     17 CL        137.4378  145.0828  154.9442 Cl      1  UNL1       -0.0813
     18 C         137.2847  142.9604  156.4348 C.ar    1  UNL1        0.0270
     19 C         139.4106  137.5027  163.4871 C.3     1  UNL1        0.0735
     20 C         140.2863  138.1455  164.5215 C.3     1  UNL1        0.0320
     21 C         141.7288  137.7500  164.6337 C.3     1  UNL1        0.0042
     22 C         142.6045  138.3927  165.6681 C.3     1  UNL1        0.0174
     23 C         142.0376  139.4310  166.5904 C.3     1  UNL1        0.0721
     24 N         140.5950  139.8266  166.4782 N.3     1  UNL1       -0.2726
     25 C         139.7194  139.1837  165.4437 C.3     1  UNL1        0.0734
     26 C         140.0281  140.8648  167.4004 C.3     1  UNL1        0.0720
     27 C         139.7509  140.5233  168.8345 C.3     1  UNL1        0.0160
     28 C         138.7773  140.3296  169.9590 C.3     1  UNL1        0.0014
     29 C         140.2446  140.1253  170.1939 C.3     1  UNL1        0.0014
@<TRIPOS>BOND
     1     1     2    2
     2     2     3   am
     3     3    11    1
     4    11    12   ar
     5    12    13   ar
     6    13    14   ar
     7    14    15    1
     8    14    16   ar
     9    16    17    1
    10    16    18   ar
    11     2     4   am
    12     4     5    1
    13     5     6    1
    14     6     7    1
    15     7    19    1
    16    20    19    1
    17    20    21    1
    18    21    22    1
    19    22    23    1
    20    23    24    1
    21    24    26    1
    22    26    27    1
    23    27    28    1
    24    28    29    1
    25    24    25    1
    26     7     8    1
    27     8     9    1
    28    18    11   ar
    29     9     4    1
    30    25    20    1
    31    29    27    1
    32     3    10    1
@<TRIPOS>MOLECULE
*****
 29 32 0 0 0
SMALL
GASTEIGER

@<TRIPOS>ATOM
      1 O         139.1023  143.5458  159.3965 O.2     1  UNL1       -0.2522
      2 C         140.0898  144.2410  160.2863 C.2     1  UNL1        0.3078
      3 N         141.0883  145.1935  159.6983 N.am    1  UNL1       -0.2681
      4 N         140.0788  143.9835  161.7640 N.am    1  UNL1       -0.2611
      5 C         139.0803  143.0310  162.3520 C.3     1  UNL1        0.1123
      6 C         139.0694  142.7737  163.8297 C.3     1  UNL1        0.0940
      7 N         140.0569  143.4688  164.7194 N.3     1  UNL1       -0.2697
      8 C         141.0554  144.4213  164.1315 C.3     1  UNL1        0.0940
      9 C         141.0663  144.6787  162.6538 C.3     1  UNL1        0.1123
     10 H         141.7365  145.6497  160.2823 H       1  UNL1        0.1564
     11 C         141.0993  145.4509  158.2206 C.ar    1  UNL1        0.0525
     12 C         142.1872  144.8707  157.3663 C.ar    1  UNL1        0.0156
     13 C         142.1982  145.1281  155.8886 C.ar    1  UNL1        0.0135
     14 C         141.1213  145.9658  155.2652 C.ar    1  UNL1        0.0683
     15 CL        141.1323  146.2232  153.7875 Cl      1  UNL1       -0.0814
     16 C         140.0334  146.5459  156.1195 C.ar    1  UNL1        0.0694
     17 CL        138.9565  147.3836  155.4961 Cl      1  UNL1       -0.0813
     18 C         140.0224  146.2885  157.5972 C.ar    1  UNL1        0.0270
     19 C         140.0458  143.2114  166.1972 C.3     1  UNL1        0.0735
     20 C         140.9278  142.1470  166.7796 C.3     1  UNL1        0.0320
     21 C         141.4511  142.2891  168.1782 C.3     1  UNL1        0.0042
     22 C         142.3330  141.2247  168.7607 C.3     1  UNL1        0.0174
     23 C         142.6918  140.0183  167.9446 C.3     1  UNL1        0.0721
     24 N         142.1685  139.8763  166.5460 N.3     1  UNL1       -0.2726
     25 C         141.2865  140.9407  165.9635 C.3     1  UNL1        0.0734
     26 C         142.5271  138.6700  165.7299 C.3     1  UNL1        0.0720
     27 C         141.4735  137.9690  164.9245 C.3     1  UNL1        0.0160
     28 C         140.0411  137.5710  164.7253 C.3     1  UNL1        0.0014
     29 C         141.0812  137.1528  163.7287 C.3     1  UNL1        0.0014
@<TRIPOS>BOND
     1     1     2    2
     2     2     3   am
     3     3    11    1
     4    11    12   ar
     5    12    13   ar
     6    13    14   ar
     7    14    15    1
     8    14    16   ar
     9    16    17    1
    10    16    18   ar
    11     2     4   am
    12     4     5    1
    13     5     6    1
    14     6     7    1
    15     7    19    1
    16    20    19    1
    17    20    21    1
    18    21    22    1
    19    22    23    1
    20    23    24    1
    21    24    26    1
    22    26    27    1
    23    27    28    1
    24    28    29    1
    25    24    25    1
    26     7     8    1
    27     8     9    1
    28    18    11   ar
    29     9     4    1
    30    25    20    1
    31    29    27    1
    32     3    10    1
@<TRIPOS>MOLECULE
*****
 29 32 0 0 0
SMALL
GASTEIGER

@<TRIPOS>ATOM
      1 O         144.4363  137.3016  155.8048 O.2     1  UNL1       -0.2522
      2 C         143.1651  137.3903  156.5961 C.2     1  UNL1        0.3078
      3 N         142.4399  136.1387  156.9930 N.am    1  UNL1       -0.2681
      4 N         142.6192  138.7306  156.9905 N.am    1  UNL1       -0.2611
      5 C         143.3444  139.9822  156.5936 C.3     1  UNL1        0.1123
      6 C         142.7984  141.3224  156.9880 C.3     1  UNL1        0.0940
      7 N         141.5272  141.4111  157.7793 N.3     1  UNL1       -0.2697
      8 C         140.8020  140.1596  158.1762 C.3     1  UNL1        0.0940
      9 C         141.3480  138.8193  157.7818 C.3     1  UNL1        0.1123
     10 H         141.6055  136.1970  157.5124 H       1  UNL1        0.1564
     11 C         142.9858  134.7984  156.5986 C.ar    1  UNL1        0.0525
     12 C         142.6296  134.2056  155.2676 C.ar    1  UNL1        0.0156
     13 C         143.1756  132.8653  154.8732 C.ar    1  UNL1        0.0135
     14 C         144.0777  132.1178  155.8099 C.ar    1  UNL1        0.0683
     15 CL        144.6237  130.7775  155.4155 Cl      1  UNL1       -0.0814
     16 C         144.4339  132.7106  157.1410 C.ar    1  UNL1        0.0694
     17 CL        145.3361  131.9631  158.0776 Cl      1  UNL1       -0.0813
     18 C         143.8880  134.0509  157.5353 C.ar    1  UNL1        0.0270
     19 C         140.9813  142.7515  158.1737 C.3     1  UNL1        0.0735
     20 C         141.2302  143.2864  159.5528 C.3     1  UNL1        0.0320
     21 C         142.5721  143.1029  160.1975 C.3     1  UNL1        0.0042
     22 C         142.8210  143.6379  161.5766 C.3     1  UNL1        0.0174
     23 C         141.7280  144.3564  162.3110 C.3     1  UNL1        0.0721
     24 N         140.3862  144.5399  161.6662 N.3     1  UNL1       -0.2726
     25 C         140.1373  144.0049  160.2871 C.3     1  UNL1        0.0734
     26 C         139.2932  145.2584  162.4005 C.3     1  UNL1        0.0720
     27 C         138.8039  144.7336  163.7178 C.3     1  UNL1        0.0160
     28 C         138.7968  144.7897  165.2168 C.3     1  UNL1        0.0014
     29 C         137.9636  143.7686  164.5005 C.3     1  UNL1        0.0014
@<TRIPOS>BOND
     1     1     2    2
     2     2     3   am
     3     3    11    1
     4    11    12   ar
     5    12    13   ar
     6    13    14   ar
     7    14    15    1
     8    14    16   ar
     9    16    17    1
    10    16    18   ar
    11     2     4   am
    12     4     5    1
    13     5     6    1
    14     6     7    1
    15     7    19    1
    16    20    19    1
    17    20    21    1
    18    21    22    1
    19    22    23    1
    20    23    24    1
    21    24    26    1
    22    26    27    1
    23    27    28    1
    24    28    29    1
    25    24    25    1
    26     7     8    1
    27     8     9    1
    28    18    11   ar
    29     9     4    1
    30    25    20    1
    31    29    27    1
    32     3    10    1
@<TRIPOS>MOLECULE
*****
 29 32 0 0 0
SMALL
GASTEIGER

@<TRIPOS>ATOM
      1 O         140.6788  137.7286  157.3978 O.2     1  UNL1       -0.2522
      2 C         142.0592  138.2050  157.7406 C.2     1  UNL1        0.3078
      3 N         143.2572  137.4396  157.2622 N.am    1  UNL1       -0.2681
      4 N         142.2416  139.4470  158.5619 N.am    1  UNL1       -0.2611
      5 C         141.0436  140.2124  159.0403 C.3     1  UNL1        0.1123
      6 C         141.2261  141.4543  159.8615 C.3     1  UNL1        0.0940
      7 N         142.6065  141.9307  160.2043 N.3     1  UNL1       -0.2697
      8 C         143.8045  141.1653  159.7259 C.3     1  UNL1        0.0940
      9 C         143.6220  139.9234  158.9047 C.3     1  UNL1        0.1123
     10 H         144.1632  137.7523  157.4872 H       1  UNL1        0.1564
     11 C         143.0748  136.1976  156.4410 C.ar    1  UNL1        0.0525
     12 C         142.8454  136.3032  154.9624 C.ar    1  UNL1        0.0156
     13 C         142.6630  135.0613  154.1412 C.ar    1  UNL1        0.0135
     14 C         142.7100  133.7138  154.7986 C.ar    1  UNL1        0.0683
     15 CL        142.5276  132.4719  153.9774 Cl      1  UNL1       -0.0814
     16 C         142.9394  133.6083  156.2772 C.ar    1  UNL1        0.0694
     17 CL        142.9864  132.2608  156.9346 Cl      1  UNL1       -0.0813
     18 C         143.1218  134.8502  157.0984 C.ar    1  UNL1        0.0270
     19 C         142.7889  143.1727  161.0255 C.3     1  UNL1        0.0735
     20 C         142.9823  143.0689  162.5094 C.3     1  UNL1        0.0320
     21 C         144.3651  142.9550  163.0794 C.3     1  UNL1        0.0042
     22 C         144.5585  142.8513  164.5632 C.3     1  UNL1        0.0174
     23 C         143.3690  142.8614  165.4771 C.3     1  UNL1        0.0721
     24 N         141.9862  142.9753  164.9071 N.3     1  UNL1       -0.2726
     25 C         141.7929  143.0791  163.4232 C.3     1  UNL1        0.0734
     26 C         140.7968  142.9855  165.8210 C.3     1  UNL1        0.0720
     27 C         139.5443  143.7036  165.4139 C.3     1  UNL1        0.0160
     28 C         138.6648  144.9172  165.4741 C.3     1  UNL1        0.0014
     29 C         138.2546  143.7338  164.6488 C.3     1  UNL1        0.0014
@<TRIPOS>BOND
     1     1     2    2
     2     2     3   am
     3     3    11    1
     4    11    12   ar
     5    12    13   ar
     6    13    14   ar
     7    14    15    1
     8    14    16   ar
     9    16    17    1
    10    16    18   ar
    11     2     4   am
    12     4     5    1
    13     5     6    1
    14     6     7    1
    15     7    19    1
    16    20    19    1
    17    20    21    1
    18    21    22    1
    19    22    23    1
    20    23    24    1
    21    24    26    1
    22    26    27    1
    23    27    28    1
    24    28    29    1
    25    24    25    1
    26     7     8    1
    27     8     9    1
    28    18    11   ar
    29     9     4    1
    30    25    20    1
    31    29    27    1
    32     3    10    1
@<TRIPOS>MOLECULE
*****
 29 32 0 0 0
SMALL
GASTEIGER

@<TRIPOS>ATOM
      1 O         143.7985  137.4341  156.5905 O.2     1  UNL1       -0.2522
      2 C         142.3042  137.3452  156.6862 C.2     1  UNL1        0.3078
      3 N         141.6209  136.0180  156.5394 N.am    1  UNL1       -0.2681
      4 N         141.4933  138.5836  156.9287 N.am    1  UNL1       -0.2611
      5 C         142.1766  139.9108  157.0755 C.3     1  UNL1        0.1123
      6 C         141.3656  141.1491  157.3180 C.3     1  UNL1        0.0940
      7 N         139.8713  141.0602  157.4137 N.3     1  UNL1       -0.2697
      8 C         139.1880  139.7331  157.2669 C.3     1  UNL1        0.0940
      9 C         139.9989  138.4947  157.0244 C.3     1  UNL1        0.1123
     10 H         140.6402  135.9597  156.6023 H       1  UNL1        0.1564
     11 C         142.4319  134.7796  156.2969 C.ar    1  UNL1        0.0525
     12 C         142.2718  134.0174  155.0150 C.ar    1  UNL1        0.0156
     13 C         143.0828  132.7790  154.7726 C.ar    1  UNL1        0.0135
     14 C         144.0538  132.3029  155.8121 C.ar    1  UNL1        0.0683
     15 CL        144.8648  131.0645  155.5696 Cl      1  UNL1       -0.0814
     16 C         144.2139  133.0652  157.0940 C.ar    1  UNL1        0.0694
     17 CL        145.1849  132.5891  158.1334 Cl      1  UNL1       -0.0813
     18 C         143.4029  134.3035  157.3364 C.ar    1  UNL1        0.0270
     19 C         139.0603  142.2987  157.6562 C.3     1  UNL1        0.0735
     20 C         139.2685  143.0983  158.9080 C.3     1  UNL1        0.0320
     21 C         140.2051  144.2700  158.9024 C.3     1  UNL1        0.0042
     22 C         140.4133  145.0697  160.1542 C.3     1  UNL1        0.0174
     23 C         139.6850  144.6977  161.4117 C.3     1  UNL1        0.0721
     24 N         138.7484  143.5260  161.4173 N.3     1  UNL1       -0.2726
     25 C         138.5402  142.7263  160.1654 C.3     1  UNL1        0.0734
     26 C         138.0201  143.1540  162.6747 C.3     1  UNL1        0.0720
     27 C         138.5149  143.6476  164.0020 C.3     1  UNL1        0.0160
     28 C         138.5308  144.6966  165.0741 C.3     1  UNL1        0.0014
     29 C         139.3558  143.4535  165.2288 C.3     1  UNL1        0.0014
@<TRIPOS>BOND
     1     1     2    2
     2     2     3   am
     3     3    11    1
     4    11    12   ar
     5    12    13   ar
     6    13    14   ar
     7    14    15    1
     8    14    16   ar
     9    16    17    1
    10    16    18   ar
    11     2     4   am
    12     4     5    1
    13     5     6    1
    14     6     7    1
    15     7    19    1
    16    20    19    1
    17    20    21    1
    18    21    22    1
    19    22    23    1
    20    23    24    1
    21    24    26    1
    22    26    27    1
    23    27    28    1
    24    28    29    1
    25    24    25    1
    26     7     8    1
    27     8     9    1
    28    18    11   ar
    29     9     4    1
    30    25    20    1
    31    29    27    1
    32     3    10    1
@<TRIPOS>MOLECULE
*****
 29 32 0 0 0
SMALL
GASTEIGER

@<TRIPOS>ATOM
      1 O         140.1916  140.3304  156.9640 O.2     1  UNL1       -0.2522
      2 C         139.6072  139.4450  158.0244 C.2     1  UNL1        0.3078
      3 N         139.5742  137.9585  157.8260 N.am    1  UNL1       -0.2681
      4 N         139.0557  140.0460  159.2833 N.am    1  UNL1       -0.2611
      5 C         139.0887  141.5325  159.4817 C.3     1  UNL1        0.1123
      6 C         138.5372  142.1335  160.7405 C.3     1  UNL1        0.0940
      7 N         137.9528  141.2480  161.8009 N.3     1  UNL1       -0.2697
      8 C         137.9198  139.7616  161.6025 C.3     1  UNL1        0.0940
      9 C         138.4713  139.1606  160.3437 C.3     1  UNL1        0.1123
     10 H         139.1906  137.3774  158.5220 H       1  UNL1        0.1564
     11 C         140.1257  137.3575  156.5672 C.ar    1  UNL1        0.0525
     12 C         139.2541  137.2286  155.3532 C.ar    1  UNL1        0.0156
     13 C         139.8056  136.6275  154.0944 C.ar    1  UNL1        0.0135
     14 C         141.2287  136.1554  154.0496 C.ar    1  UNL1        0.0683
     15 CL        141.7802  135.5543  152.7908 Cl      1  UNL1       -0.0814
     16 C         142.1002  136.2843  155.2636 C.ar    1  UNL1        0.0694
     17 CL        143.5233  135.8121  155.2188 Cl      1  UNL1       -0.0813
     18 C         141.5487  136.8853  156.5224 C.ar    1  UNL1        0.0270
     19 C         137.4013  141.8491  163.0598 C.3     1  UNL1        0.0735
     20 C         138.2954  142.0563  164.2462 C.3     1  UNL1        0.0320
     21 C         138.8681  143.4142  164.5257 C.3     1  UNL1        0.0042
     22 C         139.7621  143.6214  165.7121 C.3     1  UNL1        0.0174
     23 C         140.0835  142.4707  166.6191 C.3     1  UNL1        0.0721
     24 N         139.5108  141.1128  166.3396 N.3     1  UNL1       -0.2726
     25 C         138.6167  140.9056  165.1531 C.3     1  UNL1        0.0734
     26 C         139.8322  139.9621  167.2466 C.3     1  UNL1        0.0720
     27 C         139.7435  140.1322  168.7343 C.3     1  UNL1        0.0160
     28 C         138.9373  140.4423  169.9606 C.3     1  UNL1        0.0014
     29 C         140.3963  140.1167  170.0847 C.3     1  UNL1        0.0014
@<TRIPOS>BOND
     1     1     2    2
     2     2     3   am
     3     3    11    1
     4    11    12   ar
     5    12    13   ar
     6    13    14   ar
     7    14    15    1
     8    14    16   ar
     9    16    17    1
    10    16    18   ar
    11     2     4   am
    12     4     5    1
    13     5     6    1
    14     6     7    1
    15     7    19    1
    16    20    19    1
    17    20    21    1
    18    21    22    1
    19    22    23    1
    20    23    24    1
    21    24    26    1
    22    26    27    1
    23    27    28    1
    24    28    29    1
    25    24    25    1
    26     7     8    1
    27     8     9    1
    28    18    11   ar
    29     9     4    1
    30    25    20    1
    31    29    27    1
    32     3    10    1
@<TRIPOS>MOLECULE
*****
 29 32 0 0 0
SMALL
GASTEIGER

@<TRIPOS>ATOM
      1 O         139.6586  140.3683  157.2758 O.2     1  UNL1       -0.2522
      2 C         138.5613  140.2204  158.2878 C.2     1  UNL1        0.3078
      3 N         137.1924  140.7585  157.9939 N.am    1  UNL1       -0.2681
      4 N         138.8331  139.5343  159.5938 N.am    1  UNL1       -0.2611
      5 C         140.2021  138.9963  159.8877 C.3     1  UNL1        0.1123
      6 C         140.4738  138.3102  161.1936 C.3     1  UNL1        0.0940
      7 N         139.3766  138.1623  162.2057 N.3     1  UNL1       -0.2697
      8 C         138.0076  138.7003  161.9118 C.3     1  UNL1        0.0940
      9 C         137.7359  139.3864  160.6058 C.3     1  UNL1        0.1123
     10 H         136.4723  140.6613  158.6582 H       1  UNL1        0.1564
     11 C         136.9206  141.4445  156.6879 C.ar    1  UNL1        0.0525
     12 C         136.2574  140.6949  155.5707 C.ar    1  UNL1        0.0156
     13 C         135.9857  141.3810  154.2648 C.ar    1  UNL1        0.0135
     14 C         136.3771  142.8167  154.0761 C.ar    1  UNL1        0.0683
     15 CL        136.1053  143.5027  152.7702 Cl      1  UNL1       -0.0814
     16 C         137.0403  143.5663  155.1934 C.ar    1  UNL1        0.0694
     17 CL        137.4317  145.0020  155.0047 Cl      1  UNL1       -0.0813
     18 C         137.3120  142.8802  156.4993 C.ar    1  UNL1        0.0270
     19 C         139.6484  137.4762  163.5116 C.3     1  UNL1        0.0735
     20 C         139.6450  138.2644  164.7878 C.3     1  UNL1        0.0320
     21 C         138.4037  138.3267  165.6276 C.3     1  UNL1        0.0042
     22 C         138.4003  139.1149  166.9038 C.3     1  UNL1        0.0174
     23 C         139.6384  139.8408  167.3403 C.3     1  UNL1        0.0721
     24 N         140.8797  139.7785  166.5005 N.3     1  UNL1       -0.2726
     25 C         140.8830  138.9902  165.2243 C.3     1  UNL1        0.0734
     26 C         142.1177  140.5043  166.9369 C.3     1  UNL1        0.0720
     27 C         142.7948  141.4618  166.0015 C.3     1  UNL1        0.0160
     28 C         142.8289  142.7867  165.2991 C.3     1  UNL1        0.0014
     29 C         143.9335  141.7951  165.0839 C.3     1  UNL1        0.0014
@<TRIPOS>BOND
     1     1     2    2
     2     2     3   am
     3     3    11    1
     4    11    12   ar
     5    12    13   ar
     6    13    14   ar
     7    14    15    1
     8    14    16   ar
     9    16    17    1
    10    16    18   ar
    11     2     4   am
    12     4     5    1
    13     5     6    1
    14     6     7    1
    15     7    19    1
    16    20    19    1
    17    20    21    1
    18    21    22    1
    19    22    23    1
    20    23    24    1
    21    24    26    1
    22    26    27    1
    23    27    28    1
    24    28    29    1
    25    24    25    1
    26     7     8    1
    27     8     9    1
    28    18    11   ar
    29     9     4    1
    30    25    20    1
    31    29    27    1
    32     3    10    1
@<TRIPOS>MOLECULE
*****
 29 32 0 0 0
SMALL
GASTEIGER

@<TRIPOS>ATOM
      1 O         145.5646  140.2461  156.1243 O.2     1  UNL1       -0.2522
      2 C         145.4497  141.4245  157.0452 C.2     1  UNL1        0.3078
      3 N         146.2889  142.6452  156.8096 N.am    1  UNL1       -0.2681
      4 N         144.4955  141.3821  158.2019 N.am    1  UNL1       -0.2611
      5 C         143.6563  140.1614  158.4376 C.3     1  UNL1        0.1123
      6 C         142.7023  140.1191  159.5943 C.3     1  UNL1        0.0940
      7 N         142.5873  141.2975  160.5152 N.3     1  UNL1       -0.2697
      8 C         143.4265  142.5182  160.2796 C.3     1  UNL1        0.0940
      9 C         144.3806  142.5605  159.1229 C.3     1  UNL1        0.1123
     10 H         146.2134  143.4186  157.4140 H       1  UNL1        0.1564
     11 C         147.2430  142.6876  155.6529 C.ar    1  UNL1        0.0525
     12 C         146.8895  143.4604  154.4169 C.ar    1  UNL1        0.0156
     13 C         147.8436  143.5028  153.2603 C.ar    1  UNL1        0.0135
     14 C         149.1513  142.7723  153.3397 C.ar    1  UNL1        0.0683
     15 CL        150.1054  142.8146  152.1830 Cl      1  UNL1       -0.0814
     16 C         149.5048  141.9994  154.5756 C.ar    1  UNL1        0.0694
     17 CL        150.8125  141.2688  154.6550 Cl      1  UNL1       -0.0813
     18 C         148.5507  141.9570  155.7322 C.ar    1  UNL1        0.0270
     19 C         141.6332  141.2551  161.6719 C.3     1  UNL1        0.0735
     20 C         142.0994  140.7665  163.0113 C.3     1  UNL1        0.0320
     21 C         143.5535  140.4776  163.2397 C.3     1  UNL1        0.0042
     22 C         144.0198  139.9890  164.5790 C.3     1  UNL1        0.0174
     23 C         143.0319  139.7892  165.6900 C.3     1  UNL1        0.0721
     24 N         141.5778  140.0781  165.4616 N.3     1  UNL1       -0.2726
     25 C         141.1116  140.5667  164.1222 C.3     1  UNL1        0.0734
     26 C         140.5899  139.8783  166.5725 C.3     1  UNL1        0.0720
     27 C         139.3301  139.1025  166.3254 C.3     1  UNL1        0.0160
     28 C         137.9118  138.7777  166.6901 C.3     1  UNL1        0.0014
     29 C         138.5663  138.0836  165.5327 C.3     1  UNL1        0.0014
@<TRIPOS>BOND
     1     1     2    2
     2     2     3   am
     3     3    11    1
     4    11    12   ar
     5    12    13   ar
     6    13    14   ar
     7    14    15    1
     8    14    16   ar
     9    16    17    1
    10    16    18   ar
    11     2     4   am
    12     4     5    1
    13     5     6    1
    14     6     7    1
    15     7    19    1
    16    20    19    1
    17    20    21    1
    18    21    22    1
    19    22    23    1
    20    23    24    1
    21    24    26    1
    22    26    27    1
    23    27    28    1
    24    28    29    1
    25    24    25    1
    26     7     8    1
    27     8     9    1
    28    18    11   ar
    29     9     4    1
    30    25    20    1
    31    29    27    1
    32     3    10    1
