@<TRIPOS>MOLECULE
*****
 32 35 0 0 0
SMALL
GASTEIGER

@<TRIPOS>ATOM
      1 N         144.1542  143.2048  166.2931 N.pl3   1  UNL1       -0.2824
      2 H         144.7939  143.8216  166.7169 H       1  UNL1        0.1551
      3 C         141.7810  143.9575  161.5787 C.ar    1  UNL1        0.1517
      4 N         142.2669  143.5944  160.2068 N.ar    1  UNL1       -0.2260
      5 C         143.6103  142.9424  160.3484 C.ar    1  UNL1        0.1248
      6 C         144.4601  142.4216  159.2274 C.3     1  UNL1        0.0722
      7 N         143.9547  142.9024  161.8077 N.ar    1  UNL1       -0.2920
      8 C         145.1517  142.3758  162.5424 C.ar    1  UNL1        0.0824
      9 C         145.2182  142.4766  164.0375 C.ar    1  UNL1        0.0337
     10 C         144.0877  143.1040  164.7979 C.ar    1  UNL1        0.0535
     11 C         142.8906  143.6306  164.0633 C.ar    1  UNL1        0.0339
     12 C         142.8242  143.5298  162.5682 C.ar    1  UNL1        0.0884
     13 C         138.1264  144.5650  163.0017 C.3     1  UNL1        0.1110
     14 N         139.4270  143.8923  162.6763 N.am    1  UNL1       -0.2979
     15 C         140.4804  144.6301  161.9041 C.2     1  UNL1        0.2651
     16 O         140.2330  146.0405  161.4574 O.2     1  UNL1       -0.2684
     17 H         139.5893  142.9666  162.9695 H       1  UNL1        0.1498
     18 C         143.2461  142.3659  167.1425 C.ar    1  UNL1        0.2221
     19 N         143.3742  142.3989  168.6367 N.ar    1  UNL1       -0.2119
     20 C         142.4660  141.5599  169.4860 C.ar    1  UNL1        0.1050
     21 C         141.4298  140.6879  168.8413 C.ar    1  UNL1        0.0596
     22 C         141.3017  140.6549  167.3471 C.ar    1  UNL1        0.1682
     23 N         142.2098  141.4938  166.4977 N.ar    1  UNL1       -0.1944
     24 N         140.2654  139.7829  166.7024 N.ar    1  UNL1       -0.2108
     25 C         140.4097  139.0613  165.3953 C.ar    1  UNL1        0.1007
     26 C         139.1364  138.3118  165.1365 C.ar    1  UNL1        0.0340
     27 C         138.2052  138.5702  166.2838 C.ar    1  UNL1        0.1192
     28 N         138.9030  139.4794  167.2515 N.ar    1  UNL1       -0.1624
     29 C         138.8454  137.4544  163.9406 C.3     1  UNL1        0.1024
     30 N         138.9758  138.0247  162.5593 N.3     1  UNL1       -0.2664
     31 C         137.7959  138.6788  161.9036 C.3     1  UNL1        0.0899
     32 C         140.2861  137.9408  161.8339 C.3     1  UNL1        0.0899
@<TRIPOS>BOND
     1    13    14    1
     2    14    15   am
     3    15    16    2
     4    15     3    1
     5     3     4   ar
     6     4     5   ar
     7     5     6    1
     8     5     7   ar
     9     7     8   ar
    10     8     9   ar
    11     9    10   ar
    12    10     1    1
    13     1    18    1
    14    18    19   ar
    15    19    20   ar
    16    20    21   ar
    17    21    22   ar
    18    22    24    1
    19    24    25   ar
    20    25    26   ar
    21    26    29    1
    22    29    30    1
    23    30    31    1
    24    30    32    1
    25    26    27   ar
    26    27    28   ar
    27    22    23   ar
    28    10    11   ar
    29    11    12   ar
    30    12     3   ar
    31    12     7   ar
    32    23    18   ar
    33    28    24   ar
    34    14    17    1
    35     1     2    1
@<TRIPOS>MOLECULE
*****
 32 35 0 0 0
SMALL
GASTEIGER

@<TRIPOS>ATOM
      1 N         137.4457  140.8021  162.0091 N.pl3   1  UNL1       -0.2824
      2 H         136.4627  140.8182  161.9575 H       1  UNL1        0.1551
      3 C         141.1812  144.4878  161.0677 C.ar    1  UNL1        0.1517
      4 N         141.6306  145.0658  159.7585 N.ar    1  UNL1       -0.2260
      5 C         140.8291  144.4202  158.6673 C.ar    1  UNL1        0.1248
      6 C         140.9509  144.7021  157.1991 C.3     1  UNL1        0.0722
      7 N         139.8842  143.4433  159.3021 N.ar    1  UNL1       -0.2920
      8 C         138.8538  142.5212  158.7209 C.ar    1  UNL1        0.0824
      9 C         138.0410  141.6408  159.6232 C.ar    1  UNL1        0.0337
     10 C         138.2586  141.6826  161.1068 C.ar    1  UNL1        0.0535
     11 C         139.2890  142.6047  161.6880 C.ar    1  UNL1        0.0339
     12 C         140.1018  143.4851  160.7856 C.ar    1  UNL1        0.0884
     13 C         143.7338  145.2991  163.9962 C.3     1  UNL1        0.1110
     14 N         143.1980  144.9378  162.6426 N.am    1  UNL1       -0.2979
     15 C         141.7170  144.8491  162.4214 C.2     1  UNL1        0.2651
     16 O         140.7720  145.1217  163.5538 O.2     1  UNL1       -0.2684
     17 H         143.8183  144.7589  161.8993 H       1  UNL1        0.1498
     18 C         138.1306  139.8973  162.9900 C.ar    1  UNL1        0.2221
     19 N         138.6162  138.5472  162.5524 N.ar    1  UNL1       -0.2119
     20 C         139.3011  137.6423  163.5334 C.ar    1  UNL1        0.1050
     21 C         139.5004  138.0876  164.9518 C.ar    1  UNL1        0.0596
     22 C         139.0149  139.4377  165.3893 C.ar    1  UNL1        0.1682
     23 N         138.3300  140.3425  164.4085 N.ar    1  UNL1       -0.1944
     24 N         139.2142  139.8829  166.8078 N.ar    1  UNL1       -0.2108
     25 C         140.1158  140.9909  167.2657 C.ar    1  UNL1        0.1007
     26 C         140.0058  141.0912  168.7582 C.ar    1  UNL1        0.0340
     27 C         139.0362  140.0451  169.2228 C.ar    1  UNL1        0.1192
     28 N         138.5470  139.2984  168.0173 N.ar    1  UNL1       -0.1624
     29 C         140.7369  142.0662  169.6327 C.3     1  UNL1        0.1024
     30 N         142.1578  141.7972  170.0311 N.3     1  UNL1       -0.2664
     31 C         143.0828  142.9401  170.3278 C.3     1  UNL1        0.0899
     32 C         142.6538  140.3851  170.1328 C.3     1  UNL1        0.0899
@<TRIPOS>BOND
     1    13    14    1
     2    14    15   am
     3    15    16    2
     4    15     3    1
     5     3     4   ar
     6     4     5   ar
     7     5     6    1
     8     5     7   ar
     9     7     8   ar
    10     8     9   ar
    11     9    10   ar
    12    10     1    1
    13     1    18    1
    14    18    19   ar
    15    19    20   ar
    16    20    21   ar
    17    21    22   ar
    18    22    24    1
    19    24    25   ar
    20    25    26   ar
    21    26    29    1
    22    29    30    1
    23    30    31    1
    24    30    32    1
    25    26    27   ar
    26    27    28   ar
    27    22    23   ar
    28    10    11   ar
    29    11    12   ar
    30    12     3   ar
    31    12     7   ar
    32    23    18   ar
    33    28    24   ar
    34    14    17    1
    35     1     2    1
@<TRIPOS>MOLECULE
*****
 32 35 0 0 0
SMALL
GASTEIGER

@<TRIPOS>ATOM
      1 N         140.5271  145.7226  161.1654 N.pl3   1  UNL1       -0.2824
      2 H         140.3860  146.6902  161.0514 H       1  UNL1        0.1551
      3 C         144.2032  142.0590  159.9453 C.ar    1  UNL1        0.1517
      4 N         144.7729  141.7010  158.6047 N.ar    1  UNL1       -0.2260
      5 C         144.1217  142.5767  157.5755 C.ar    1  UNL1        0.1248
      6 C         144.3947  142.5567  156.1007 C.3     1  UNL1        0.0722
      7 N         143.1496  143.4760  158.2801 N.ar    1  UNL1       -0.2920
      8 C         142.2251  144.5448  157.7773 C.ar    1  UNL1        0.0824
      9 C         141.3510  145.2936  158.7390 C.ar    1  UNL1        0.0337
     10 C         141.4013  144.9737  160.2037 C.ar    1  UNL1        0.0535
     11 C         142.3258  143.9048  160.7065 C.ar    1  UNL1        0.0339
     12 C         143.2000  143.1560  159.7447 C.ar    1  UNL1        0.0884
     13 C         145.7281  141.5821  163.5782 C.3     1  UNL1        0.1110
     14 N         145.3593  142.2107  162.2671 N.am    1  UNL1       -0.2979
     15 C         144.5720  141.4304  161.2564 C.2     1  UNL1        0.2651
     16 O         144.1535  140.0218  161.5568 O.2     1  UNL1       -0.2684
     17 H         145.6340  143.1353  162.0699 H       1  UNL1        0.1498
     18 C         139.8680  144.9972  162.3009 C.ar    1  UNL1        0.2221
     19 N         138.3746  144.8611  162.3379 N.ar    1  UNL1       -0.2119
     20 C         137.7155  144.1357  163.4734 C.ar    1  UNL1        0.1050
     21 C         138.5498  143.5464  164.5719 C.ar    1  UNL1        0.0596
     22 C         140.0431  143.6825  164.5350 C.ar    1  UNL1        0.1682
     23 N         140.7022  144.4079  163.3995 N.ar    1  UNL1       -0.1944
     24 N         140.8774  143.0932  165.6335 N.ar    1  UNL1       -0.2108
     25 C         140.3920  142.7087  166.9997 C.ar    1  UNL1        0.1007
     26 C         141.5581  142.1628  167.7693 C.ar    1  UNL1        0.0340
     27 C         142.7642  142.2100  166.8786 C.ar    1  UNL1        0.1192
     28 N         142.3434  142.7850  165.5586 N.ar    1  UNL1       -0.1624
     29 C         141.5241  141.6583  169.1815 C.3     1  UNL1        0.1024
     30 N         140.2275  141.6244  169.9348 N.3     1  UNL1       -0.2664
     31 C         139.2809  140.4760  169.7473 C.3     1  UNL1        0.0899
     32 C         139.8774  142.7390  170.8757 C.3     1  UNL1        0.0899
@<TRIPOS>BOND
     1    13    14    1
     2    14    15   am
     3    15    16    2
     4    15     3    1
     5     3     4   ar
     6     4     5   ar
     7     5     6    1
     8     5     7   ar
     9     7     8   ar
    10     8     9   ar
    11     9    10   ar
    12    10     1    1
    13     1    18    1
    14    18    19   ar
    15    19    20   ar
    16    20    21   ar
    17    21    22   ar
    18    22    24    1
    19    24    25   ar
    20    25    26   ar
    21    26    29    1
    22    29    30    1
    23    30    31    1
    24    30    32    1
    25    26    27   ar
    26    27    28   ar
    27    22    23   ar
    28    10    11   ar
    29    11    12   ar
    30    12     3   ar
    31    12     7   ar
    32    23    18   ar
    33    28    24   ar
    34    14    17    1
    35     1     2    1
@<TRIPOS>MOLECULE
*****
 32 35 0 0 0
SMALL
GASTEIGER

@<TRIPOS>ATOM
      1 N         143.6094  144.0790  163.3553 N.pl3   1  UNL1       -0.2824
      2 H         144.4473  144.5924  163.2950 H       1  UNL1        0.1551
      3 C         142.7375  141.3406  167.8459 C.ar    1  UNL1        0.1517
      4 N         142.8731  139.8680  168.0969 N.ar    1  UNL1       -0.2260
      5 C         143.3203  139.2195  166.8204 C.ar    1  UNL1        0.1248
      6 C         143.5809  137.7561  166.6191 C.3     1  UNL1        0.0722
      7 N         143.4610  140.2913  165.7805 N.ar    1  UNL1       -0.2920
      8 C         143.8706  140.2429  164.3383 C.ar    1  UNL1        0.0824
      9 C         143.9201  141.5054  163.5300 C.ar    1  UNL1        0.0337
     10 C         143.5599  142.8164  164.1638 C.ar    1  UNL1        0.0535
     11 C         143.1503  142.8648  165.6059 C.ar    1  UNL1        0.0339
     12 C         143.1009  141.6022  166.4142 C.ar    1  UNL1        0.0884
     13 C         140.4590  143.8522  169.9077 C.3     1  UNL1        0.1110
     14 N         140.8834  142.8220  168.9034 N.am    1  UNL1       -0.2979
     15 C         142.3131  142.3708  168.8502 C.2     1  UNL1        0.2651
     16 O         143.3181  142.9498  169.8012 O.2     1  UNL1       -0.2684
     17 H         140.2238  142.4419  168.2792 H       1  UNL1        0.1498
     18 C         142.3823  144.5593  162.6388 C.ar    1  UNL1        0.2221
     19 N         141.1237  144.8331  163.4076 N.ar    1  UNL1       -0.2119
     20 C         139.8966  145.3135  162.6910 C.ar    1  UNL1        0.1050
     21 C         139.9280  145.5200  161.2057 C.ar    1  UNL1        0.0596
     22 C         141.1866  145.2462  160.4368 C.ar    1  UNL1        0.1682
     23 N         142.4137  144.7658  161.1534 N.ar    1  UNL1       -0.1944
     24 N         141.2180  145.4527  158.9515 N.ar    1  UNL1       -0.2108
     25 C         140.0348  145.7429  158.0764 C.ar    1  UNL1        0.1007
     26 C         140.5237  145.8748  156.6645 C.ar    1  UNL1        0.0340
     27 C         142.0091  145.6661  156.6670 C.ar    1  UNL1        0.1192
     28 N         142.4382  145.4053  158.0804 N.ar    1  UNL1       -0.1624
     29 C         139.6760  146.1646  155.4614 C.3     1  UNL1        0.1024
     30 N         139.7321  147.5157  154.8122 N.3     1  UNL1       -0.2664
     31 C         138.9209  148.6487  155.3672 C.3     1  UNL1        0.0899
     32 C         140.5994  147.7337  153.6078 C.3     1  UNL1        0.0899
@<TRIPOS>BOND
     1    13    14    1
     2    14    15   am
     3    15    16    2
     4    15     3    1
     5     3     4   ar
     6     4     5   ar
     7     5     6    1
     8     5     7   ar
     9     7     8   ar
    10     8     9   ar
    11     9    10   ar
    12    10     1    1
    13     1    18    1
    14    18    19   ar
    15    19    20   ar
    16    20    21   ar
    17    21    22   ar
    18    22    24    1
    19    24    25   ar
    20    25    26   ar
    21    26    29    1
    22    29    30    1
    23    30    31    1
    24    30    32    1
    25    26    27   ar
    26    27    28   ar
    27    22    23   ar
    28    10    11   ar
    29    11    12   ar
    30    12     3   ar
    31    12     7   ar
    32    23    18   ar
    33    28    24   ar
    34    14    17    1
    35     1     2    1
@<TRIPOS>MOLECULE
*****
 32 35 0 0 0
SMALL
GASTEIGER

@<TRIPOS>ATOM
      1 N         138.5627  138.0637  164.0344 N.pl3   1  UNL1       -0.2824
      2 H         138.3811  137.0969  163.9965 H       1  UNL1        0.1551
      3 C         138.3216  142.6698  161.3605 C.ar    1  UNL1        0.1517
      4 N         138.3480  142.9059  159.8794 N.ar    1  UNL1       -0.2260
      5 C         138.4597  141.5735  159.1996 C.ar    1  UNL1        0.1248
      6 C         138.5184  141.3414  157.7188 C.3     1  UNL1        0.0722
      7 N         138.5023  140.5139  160.2604 N.ar    1  UNL1       -0.2920
      8 C         138.6078  139.0197  160.1829 C.ar    1  UNL1        0.0824
      9 C         138.6279  138.2030  161.4408 C.ar    1  UNL1        0.0337
     10 C         138.5426  138.8805  162.7764 C.ar    1  UNL1        0.0535
     11 C         138.4371  140.3747  162.8539 C.ar    1  UNL1        0.0339
     12 C         138.4169  141.1914  161.5960 C.ar    1  UNL1        0.0884
     13 C         137.7502  144.4035  164.8844 C.3     1  UNL1        0.1110
     14 N         137.8538  143.3468  163.8249 N.am    1  UNL1       -0.2979
     15 C         138.2180  143.7265  162.4201 C.2     1  UNL1        0.2651
     16 O         138.4785  145.1627  162.0750 O.2     1  UNL1       -0.2684
     17 H         137.6828  142.4041  164.0514 H       1  UNL1        0.1498
     18 C         138.8597  138.7200  165.3501 C.ar    1  UNL1        0.2221
     19 N         137.9489  138.4986  166.5211 N.ar    1  UNL1       -0.2119
     20 C         138.2459  139.1550  167.8369 C.ar    1  UNL1        0.1050
     21 C         139.4536  140.0328  167.9814 C.ar    1  UNL1        0.0596
     22 C         140.3644  140.2542  166.8104 C.ar    1  UNL1        0.1682
     23 N         140.0674  139.5978  165.4947 N.ar    1  UNL1       -0.1944
     24 N         141.5721  141.1319  166.9549 N.ar    1  UNL1       -0.2108
     25 C         142.3384  141.7689  165.8338 C.ar    1  UNL1        0.1007
     26 C         143.4655  142.5575  166.4320 C.ar    1  UNL1        0.0340
     27 C         143.3958  142.4077  167.9229 C.ar    1  UNL1        0.1192
     28 N         142.2256  141.5267  168.2461 N.ar    1  UNL1       -0.1624
     29 C         144.4835  143.3556  165.6726 C.3     1  UNL1        0.1024
     30 N         144.2022  143.7822  164.2624 N.3     1  UNL1       -0.2664
     31 C         143.5045  145.0834  163.9975 C.3     1  UNL1        0.0899
     32 C         144.6187  142.9077  163.1170 C.3     1  UNL1        0.0899
@<TRIPOS>BOND
     1    13    14    1
     2    14    15   am
     3    15    16    2
     4    15     3    1
     5     3     4   ar
     6     4     5   ar
     7     5     6    1
     8     5     7   ar
     9     7     8   ar
    10     8     9   ar
    11     9    10   ar
    12    10     1    1
    13     1    18    1
    14    18    19   ar
    15    19    20   ar
    16    20    21   ar
    17    21    22   ar
    18    22    24    1
    19    24    25   ar
    20    25    26   ar
    21    26    29    1
    22    29    30    1
    23    30    31    1
    24    30    32    1
    25    26    27   ar
    26    27    28   ar
    27    22    23   ar
    28    10    11   ar
    29    11    12   ar
    30    12     3   ar
    31    12     7   ar
    32    23    18   ar
    33    28    24   ar
    34    14    17    1
    35     1     2    1
@<TRIPOS>MOLECULE
*****
 32 35 0 0 0
SMALL
GASTEIGER

@<TRIPOS>ATOM
      1 N         140.9041  145.5182  160.8958 N.pl3   1  UNL1       -0.2824
      2 H         141.5753  146.2211  161.0531 H       1  UNL1        0.1551
      3 C         139.5967  146.2330  155.7768 C.ar    1  UNL1        0.1517
      4 N         139.4769  145.2162  154.6805 N.ar    1  UNL1       -0.2260
      5 C         139.7981  143.8703  155.2596 C.ar    1  UNL1        0.1248
      6 C         139.8006  142.5680  154.5153 C.3     1  UNL1        0.0722
      7 N         140.1164  144.0553  156.7138 N.ar    1  UNL1       -0.2920
      8 C         140.5035  143.0827  157.7881 C.ar    1  UNL1        0.0824
      9 C         140.7660  143.5703  159.1820 C.ar    1  UNL1        0.0337
     10 C         140.6415  145.0306  159.5017 C.ar    1  UNL1        0.0535
     11 C         140.2545  146.0032  158.4274 C.ar    1  UNL1        0.0339
     12 C         139.9919  145.5155  157.0334 C.ar    1  UNL1        0.0884
     13 C         138.3527  149.9203  156.5560 C.3     1  UNL1        0.1110
     14 N         138.5870  148.4450  156.6924 N.am    1  UNL1       -0.2979
     15 C         139.3623  147.7083  155.6405 C.2     1  UNL1        0.2651
     16 O         139.9032  148.4470  154.4524 O.2     1  UNL1       -0.2684
     17 H         138.2320  147.9601  157.4722 H       1  UNL1        0.1498
     18 C         140.1442  144.9350  162.0500 C.ar    1  UNL1        0.2221
     19 N         138.6443  144.9544  162.0469 N.ar    1  UNL1       -0.2119
     20 C         137.8844  144.3711  163.2012 C.ar    1  UNL1        0.1050
     21 C         138.6243  143.7684  164.3584 C.ar    1  UNL1        0.0596
     22 C         140.1241  143.7489  164.3615 C.ar    1  UNL1        0.1682
     23 N         140.8841  144.3322  163.2073 N.ar    1  UNL1       -0.1944
     24 N         140.8640  143.1462  165.5187 N.ar    1  UNL1       -0.2108
     25 C         140.3344  142.9764  166.9118 C.ar    1  UNL1        0.1007
     26 C         141.4065  142.3327  167.7401 C.ar    1  UNL1        0.0340
     27 C         142.5988  142.1046  166.8589 C.ar    1  UNL1        0.1192
     28 N         142.2635  142.6074  165.4860 N.ar    1  UNL1       -0.1624
     29 C         141.3044  141.9791  169.1942 C.3     1  UNL1        0.1024
     30 N         140.7585  140.6436  169.6048 N.3     1  UNL1       -0.2664
     31 C         139.2792  140.4557  169.7668 C.3     1  UNL1        0.0899
     32 C         141.6921  139.4961  169.8534 C.3     1  UNL1        0.0899
@<TRIPOS>BOND
     1    13    14    1
     2    14    15   am
     3    15    16    2
     4    15     3    1
     5     3     4   ar
     6     4     5   ar
     7     5     6    1
     8     5     7   ar
     9     7     8   ar
    10     8     9   ar
    11     9    10   ar
    12    10     1    1
    13     1    18    1
    14    18    19   ar
    15    19    20   ar
    16    20    21   ar
    17    21    22   ar
    18    22    24    1
    19    24    25   ar
    20    25    26   ar
    21    26    29    1
    22    29    30    1
    23    30    31    1
    24    30    32    1
    25    26    27   ar
    26    27    28   ar
    27    22    23   ar
    28    10    11   ar
    29    11    12   ar
    30    12     3   ar
    31    12     7   ar
    32    23    18   ar
    33    28    24   ar
    34    14    17    1
    35     1     2    1
@<TRIPOS>MOLECULE
*****
 32 35 0 0 0
SMALL
GASTEIGER

@<TRIPOS>ATOM
      1 N         144.4027  139.0309  161.2737 N.pl3   1  UNL1       -0.2824
      2 H         145.1193  138.3799  161.0950 H       1  UNL1        0.1551
      3 C         140.3235  139.2893  164.6966 C.ar    1  UNL1        0.1517
      4 N         140.3496  139.4148  166.1912 N.ar    1  UNL1       -0.2260
      5 C         141.7840  139.4614  166.6273 C.ar    1  UNL1        0.1248
      6 C         142.2723  139.5833  168.0404 C.3     1  UNL1        0.0722
      7 N         142.6444  139.3647  165.4024 N.ar    1  UNL1       -0.2920
      8 C         144.1332  139.3598  165.2195 C.ar    1  UNL1        0.0824
      9 C         144.7192  139.2486  163.8432 C.ar    1  UNL1        0.0337
     10 C         143.8166  139.1422  162.6500 C.ar    1  UNL1        0.0535
     11 C         142.3278  139.1471  162.8329 C.ar    1  UNL1        0.0339
     12 C         141.7417  139.2584  164.2092 C.ar    1  UNL1        0.0884
     13 C         137.7649  138.0817  161.9135 C.3     1  UNL1        0.1110
     14 N         138.9936  138.1621  162.7702 N.am    1  UNL1       -0.2979
     15 C         139.0948  139.2088  163.8399 C.2     1  UNL1        0.2651
     16 O         137.9674  140.1749  164.0529 O.2     1  UNL1       -0.2684
     17 H         139.7336  137.5280  162.6303 H       1  UNL1        0.1498
     18 C         143.8971  139.9116  160.1697 C.ar    1  UNL1        0.2221
     19 N         144.1244  139.5251  158.7383 N.ar    1  UNL1       -0.2119
     20 C         143.6188  140.4058  157.6343 C.ar    1  UNL1        0.1050
     21 C         142.8859  141.6730  157.9618 C.ar    1  UNL1        0.0596
     22 C         142.6586  142.0594  159.3932 C.ar    1  UNL1        0.1682
     23 N         143.1642  141.1788  160.4971 N.ar    1  UNL1       -0.1944
     24 N         141.9258  143.3266  159.7206 N.ar    1  UNL1       -0.2108
     25 C         141.2330  143.6352  161.0148 C.ar    1  UNL1        0.1007
     26 C         140.6361  145.0069  160.9055 C.ar    1  UNL1        0.0340
     27 C         140.9600  145.5461  159.5437 C.ar    1  UNL1        0.1192
     28 N         141.7571  144.5076  158.8115 N.ar    1  UNL1       -0.1624
     29 C         139.8528  145.7151  161.9708 C.3     1  UNL1        0.1024
     30 N         139.2398  144.9342  163.0952 N.3     1  UNL1       -0.2664
     31 C         137.8712  144.3408  162.9375 C.3     1  UNL1        0.0899
     32 C         139.9954  144.7466  164.3775 C.3     1  UNL1        0.0899
@<TRIPOS>BOND
     1    13    14    1
     2    14    15   am
     3    15    16    2
     4    15     3    1
     5     3     4   ar
     6     4     5   ar
     7     5     6    1
     8     5     7   ar
     9     7     8   ar
    10     8     9   ar
    11     9    10   ar
    12    10     1    1
    13     1    18    1
    14    18    19   ar
    15    19    20   ar
    16    20    21   ar
    17    21    22   ar
    18    22    24    1
    19    24    25   ar
    20    25    26   ar
    21    26    29    1
    22    29    30    1
    23    30    31    1
    24    30    32    1
    25    26    27   ar
    26    27    28   ar
    27    22    23   ar
    28    10    11   ar
    29    11    12   ar
    30    12     3   ar
    31    12     7   ar
    32    23    18   ar
    33    28    24   ar
    34    14    17    1
    35     1     2    1
@<TRIPOS>MOLECULE
*****
 32 35 0 0 0
SMALL
GASTEIGER

@<TRIPOS>ATOM
      1 N         138.7089  141.0965  160.2055 N.pl3   1  UNL1       -0.2824
      2 H         138.0135  140.5327  159.7959 H       1  UNL1        0.1551
      3 C         143.8117  142.6267  159.9950 C.ar    1  UNL1        0.1517
      4 N         144.7541  142.6182  158.8281 N.ar    1  UNL1       -0.2260
      5 C         144.0142  142.0816  157.6387 C.ar    1  UNL1        0.1248
      6 C         144.5755  141.9000  156.2596 C.3     1  UNL1        0.0722
      7 N         142.6146  141.7584  158.0706 N.ar    1  UNL1       -0.2920
      8 C         141.4379  141.2008  157.3259 C.ar    1  UNL1        0.0824
      9 C         140.1361  140.9802  158.0375 C.ar    1  UNL1        0.0337
     10 C         140.0109  141.3171  159.4938 C.ar    1  UNL1        0.0535
     11 C         141.1875  141.8747  160.2385 C.ar    1  UNL1        0.0339
     12 C         142.4894  142.0953  159.5269 C.ar    1  UNL1        0.0884
     13 C         143.8044  144.7766  163.3310 C.3     1  UNL1        0.1110
     14 N         143.4813  144.3173  161.9400 N.am    1  UNL1       -0.2979
     15 C         144.1348  143.0860  161.3860 C.2     1  UNL1        0.2651
     16 O         145.1113  142.3141  162.2229 O.2     1  UNL1       -0.2684
     17 H         142.8404  144.8240  161.3908 H       1  UNL1        0.1498
     18 C         138.4666  141.7349  161.5410 C.ar    1  UNL1        0.2221
     19 N         137.9944  143.1565  161.6182 N.ar    1  UNL1       -0.2119
     20 C         137.7521  143.7949  162.9538 C.ar    1  UNL1        0.1050
     21 C         137.9820  143.0116  164.2122 C.ar    1  UNL1        0.0596
     22 C         138.4542  141.5900  164.1350 C.ar    1  UNL1        0.1682
     23 N         138.6965  140.9516  162.7995 N.ar    1  UNL1       -0.1944
     24 N         138.6842  140.8067  165.3934 N.ar    1  UNL1       -0.2108
     25 C         139.6134  141.1834  166.5091 C.ar    1  UNL1        0.1007
     26 C         139.5288  140.1187  167.5623 C.ar    1  UNL1        0.0340
     27 C         138.5472  139.0840  167.0975 C.ar    1  UNL1        0.1192
     28 N         138.0252  139.5092  165.7571 N.ar    1  UNL1       -0.1624
     29 C         140.2917  140.0932  168.8535 C.3     1  UNL1        0.1024
     30 N         140.9162  141.3510  169.3807 N.3     1  UNL1       -0.2664
     31 C         142.3800  141.6053  169.1741 C.3     1  UNL1        0.0899
     32 C         140.0768  142.3546  170.1144 C.3     1  UNL1        0.0899
@<TRIPOS>BOND
     1    13    14    1
     2    14    15   am
     3    15    16    2
     4    15     3    1
     5     3     4   ar
     6     4     5   ar
     7     5     6    1
     8     5     7   ar
     9     7     8   ar
    10     8     9   ar
    11     9    10   ar
    12    10     1    1
    13     1    18    1
    14    18    19   ar
    15    19    20   ar
    16    20    21   ar
    17    21    22   ar
    18    22    24    1
    19    24    25   ar
    20    25    26   ar
    21    26    29    1
    22    29    30    1
    23    30    31    1
    24    30    32    1
    25    26    27   ar
    26    27    28   ar
    27    22    23   ar
    28    10    11   ar
    29    11    12   ar
    30    12     3   ar
    31    12     7   ar
    32    23    18   ar
    33    28    24   ar
    34    14    17    1
    35     1     2    1
@<TRIPOS>MOLECULE
*****
 32 35 0 0 0
SMALL
GASTEIGER

@<TRIPOS>ATOM
      1 N         138.8939  137.5437  163.6031 N.pl3   1  UNL1       -0.2824
      2 H         138.7761  136.5680  163.6615 H       1  UNL1        0.1551
      3 C         141.9234  140.7758  166.5695 C.ar    1  UNL1        0.1517
      4 N         141.6608  141.3226  167.9414 N.ar    1  UNL1       -0.2260
      5 C         140.3326  140.7998  168.4023 C.ar    1  UNL1        0.1248
      6 C         139.6776  141.0951  169.7191 C.3     1  UNL1        0.0722
      7 N         139.7742  139.9299  167.3153 N.ar    1  UNL1       -0.2920
      8 C         138.4976  139.1494  167.2107 C.ar    1  UNL1        0.0824
      9 C         138.2042  138.3540  165.9733 C.ar    1  UNL1        0.0337
     10 C         139.1874  138.3391  164.8405 C.ar    1  UNL1        0.0535
     11 C         140.4640  139.1197  164.9452 C.ar    1  UNL1        0.0339
     12 C         140.7574  139.9150  166.1826 C.ar    1  UNL1        0.0884
     13 C         145.0635  140.1739  164.2184 C.3     1  UNL1        0.1110
     14 N         143.8483  139.9069  165.0563 N.am    1  UNL1       -0.2979
     15 C         143.1385  141.0428  165.7316 C.2     1  UNL1        0.2651
     16 O         143.6440  142.4456  165.5690 O.2     1  UNL1       -0.2684
     17 H         143.5166  138.9861  165.1630 H       1  UNL1        0.1498
     18 C         138.7800  138.2348  162.2767 C.ar    1  UNL1        0.2221
     19 N         137.6712  139.2158  162.0349 N.ar    1  UNL1       -0.2119
     20 C         137.5573  139.9069  160.7084 C.ar    1  UNL1        0.1050
     21 C         138.5521  139.6171  159.6239 C.ar    1  UNL1        0.0596
     22 C         139.6609  138.6362  159.8657 C.ar    1  UNL1        0.1682
     23 N         139.7748  137.9450  161.1920 N.ar    1  UNL1       -0.1944
     24 N         140.6556  138.3463  158.7811 N.ar    1  UNL1       -0.2108
     25 C         140.3340  137.8933  157.3878 C.ar    1  UNL1        0.1007
     26 C         141.6263  137.7256  156.6449 C.ar    1  UNL1        0.0340
     27 C         142.7467  138.0751  157.5792 C.ar    1  UNL1        0.1192
     28 N         142.1467  138.4587  158.8994 N.ar    1  UNL1       -0.1624
     29 C         141.7727  137.2858  155.2184 C.3     1  UNL1        0.1024
     30 N         141.9552  135.8321  154.8967 N.3     1  UNL1       -0.2664
     31 C         142.0337  135.3844  153.4672 C.3     1  UNL1        0.0899
     32 C         142.0594  134.8261  156.0046 C.3     1  UNL1        0.0899
@<TRIPOS>BOND
     1    13    14    1
     2    14    15   am
     3    15    16    2
     4    15     3    1
     5     3     4   ar
     6     4     5   ar
     7     5     6    1
     8     5     7   ar
     9     7     8   ar
    10     8     9   ar
    11     9    10   ar
    12    10     1    1
    13     1    18    1
    14    18    19   ar
    15    19    20   ar
    16    20    21   ar
    17    21    22   ar
    18    22    24    1
    19    24    25   ar
    20    25    26   ar
    21    26    29    1
    22    29    30    1
    23    30    31    1
    24    30    32    1
    25    26    27   ar
    26    27    28   ar
    27    22    23   ar
    28    10    11   ar
    29    11    12   ar
    30    12     3   ar
    31    12     7   ar
    32    23    18   ar
    33    28    24   ar
    34    14    17    1
    35     1     2    1
