@<TRIPOS>MOLECULE
*****
 32 36 0 0 0
SMALL
GASTEIGER

@<TRIPOS>ATOM
      1 C         141.3084  142.2434  165.8759 C.ar    1  UNL1       -0.0003
      2 C         140.8260  142.7140  167.2159 C.ar    1  UNL1        0.0001
      3 C         141.1185  141.9052  168.4447 C.ar    1  UNL1        0.0042
      4 C         141.8934  140.6257  168.3336 C.ar    1  UNL1        0.0497
      5 C         142.3759  140.1550  166.9936 C.ar    1  UNL1       -0.0161
      6 C         142.0834  140.9639  165.7647 C.ar    1  UNL1       -0.0041
      7 C         143.1508  138.8755  166.8824 C.3     1  UNL1        0.0480
      8 C         143.4433  138.0667  168.1113 C.3     1  UNL1        0.0984
      9 N         142.9609  138.5373  169.4514 N.am    1  UNL1       -0.2743
     10 C         142.1859  139.8168  169.5625 C.2     1  UNL1        0.2488
     11 O         141.7035  140.2875  170.9026 O.2     1  UNL1       -0.2699
     12 C         140.4310  144.6700  162.1890 C.ar    1  UNL1        0.0641
     13 C         141.5861  145.0385  163.0722 C.ar    1  UNL1        0.0054
     14 C         141.8786  144.2297  164.3011 C.ar    1  UNL1        0.0002
     15 C         141.0159  143.0522  164.6469 C.ar    1  UNL1        0.0008
     16 C         139.8608  142.6837  163.7638 C.ar    1  UNL1        0.0115
     17 C         139.5683  143.4926  162.5348 C.ar    1  UNL1        0.0620
     18 CL        138.4133  143.1240  161.6517 Cl      1  UNL1       -0.0821
     19 O         139.1058  146.5657  161.0059 O.2     1  UNL1       -0.2699
     20 C         140.1385  145.4788  160.9602 C.2     1  UNL1        0.2498
     21 N         140.8788  145.2007  159.6856 N.am    1  UNL1       -0.2761
     22 C         140.6950  145.9227  158.3837 C.3     1  UNL1        0.0938
     23 C         141.6354  145.3200  157.3826 C.3     1  UNL1        0.0233
     24 C         142.4005  144.2255  158.0657 C.3     1  UNL1        0.0233
     25 C         141.9329  144.1517  159.4890 C.3     1  UNL1        0.0938
     26 C         143.2534  137.7285  170.6802 C.3     1  UNL1        0.1110
     27 C         144.0802  136.4811  170.5779 C.3     1  UNL1        0.0939
     28 N         145.0323  136.1199  171.6793 N.3     1  UNL1       -0.2712
     29 C         145.9851  137.0552  172.3630 C.3     1  UNL1        0.0722
     30 C         146.7405  136.2734  173.3967 C.3     1  UNL1        0.0188
     31 C         146.2544  134.8550  173.3517 C.3     1  UNL1        0.0188
     32 C         145.1987  134.7602  172.2903 C.3     1  UNL1        0.0722
@<TRIPOS>BOND
     1    19    20    2
     2    20    12    1
     3    12    13   ar
     4    13    14   ar
     5    14    15   ar
     6    15     1    1
     7     1     2   ar
     8     2     3   ar
     9     3     4   ar
    10     4     5   ar
    11     5     6   ar
    12     5     7    1
    13     7     8    1
    14     8     9    1
    15     9    26    1
    16    26    27    1
    17    27    28    1
    18    28    29    1
    19    29    30    1
    20    30    31    1
    21    31    32    1
    22     9    10   am
    23    10    11    2
    24    15    16   ar
    25    16    17   ar
    26    17    18    1
    27    20    21   am
    28    21    22    1
    29    22    23    1
    30    23    24    1
    31    24    25    1
    32    17    12   ar
    33    25    21    1
    34     6     1   ar
    35    32    28    1
    36    10     4    1
@<TRIPOS>MOLECULE
*****
 32 36 0 0 0
SMALL
GASTEIGER

@<TRIPOS>ATOM
      1 C         140.8182  138.5254  161.0203 C.ar    1  UNL1       -0.0003
      2 C         142.3044  138.5012  160.8192 C.ar    1  UNL1        0.0001
      3 C         142.8722  138.3964  159.4348 C.ar    1  UNL1        0.0042
      4 C         141.9538  138.3159  158.2516 C.ar    1  UNL1        0.0497
      5 C         140.4676  138.3402  158.4527 C.ar    1  UNL1       -0.0161
      6 C         139.8998  138.4449  159.8371 C.ar    1  UNL1       -0.0041
      7 C         139.5492  138.2597  157.2695 C.3     1  UNL1        0.0480
      8 C         140.1170  138.1549  155.8851 C.3     1  UNL1        0.0984
      9 N         141.6033  138.1307  155.6839 N.am    1  UNL1       -0.2743
     10 C         142.5217  138.2112  156.8671 C.2     1  UNL1        0.2488
     11 O         144.0079  138.1869  156.6660 O.2     1  UNL1       -0.2699
     12 C         139.1145  138.8396  165.1736 C.ar    1  UNL1        0.0641
     13 C         139.9700  137.6651  164.8006 C.ar    1  UNL1        0.0054
     14 C         140.5378  137.5604  163.4162 C.ar    1  UNL1        0.0002
     15 C         140.2503  138.6301  162.4048 C.ar    1  UNL1        0.0008
     16 C         139.3949  139.8045  162.7777 C.ar    1  UNL1        0.0115
     17 C         138.8270  139.9093  164.1621 C.ar    1  UNL1        0.0620
     18 CL        137.9717  141.0837  164.5350 Cl      1  UNL1       -0.0821
     19 O         137.2658  138.2418  166.8984 O.2     1  UNL1       -0.2699
     20 C         138.5467  138.9443  166.5580 C.2     1  UNL1        0.2498
     21 N         139.2597  139.7515  167.6020 N.am    1  UNL1       -0.2761
     22 C         138.8153  139.9467  169.0212 C.3     1  UNL1        0.0938
     23 C         139.8233  140.8211  169.7064 C.3     1  UNL1        0.0233
     24 C         140.8907  141.1663  168.7106 C.3     1  UNL1        0.0233
     25 C         140.5423  140.5052  167.4100 C.3     1  UNL1        0.0938
     26 C         142.1711  138.0259  154.2995 C.3     1  UNL1        0.1110
     27 C         142.3915  136.6781  153.6792 C.3     1  UNL1        0.0939
     28 N         142.4124  135.4503  154.5408 N.3     1  UNL1       -0.2712
     29 C         141.2615  134.5171  154.7738 C.3     1  UNL1        0.0722
     30 C         141.7257  133.4302  155.6977 C.3     1  UNL1        0.0188
     31 C         143.1636  133.6919  156.0356 C.3     1  UNL1        0.0188
     32 C         143.5880  134.9404  155.3206 C.3     1  UNL1        0.0722
@<TRIPOS>BOND
     1    19    20    2
     2    20    12    1
     3    12    13   ar
     4    13    14   ar
     5    14    15   ar
     6    15     1    1
     7     1     2   ar
     8     2     3   ar
     9     3     4   ar
    10     4     5   ar
    11     5     6   ar
    12     5     7    1
    13     7     8    1
    14     8     9    1
    15     9    26    1
    16    26    27    1
    17    27    28    1
    18    28    29    1
    19    29    30    1
    20    30    31    1
    21    31    32    1
    22     9    10   am
    23    10    11    2
    24    15    16   ar
    25    16    17   ar
    26    17    18    1
    27    20    21   am
    28    21    22    1
    29    22    23    1
    30    23    24    1
    31    24    25    1
    32    17    12   ar
    33    25    21    1
    34     6     1   ar
    35    32    28    1
    36    10     4    1
@<TRIPOS>MOLECULE
*****
 32 36 0 0 0
SMALL
GASTEIGER

@<TRIPOS>ATOM
      1 C         142.4685  139.8772  161.9277 C.ar    1  UNL1       -0.0003
      2 C         143.7586  139.8178  161.1649 C.ar    1  UNL1        0.0001
      3 C         143.7679  139.3402  159.7431 C.ar    1  UNL1        0.0042
      4 C         142.4870  138.9220  159.0840 C.ar    1  UNL1        0.0497
      5 C         141.1968  138.9814  159.8468 C.ar    1  UNL1       -0.0161
      6 C         141.1876  139.4591  161.2687 C.ar    1  UNL1       -0.0041
      7 C         139.9159  138.5633  159.1877 C.3     1  UNL1        0.0480
      8 C         139.9251  138.0856  157.7659 C.3     1  UNL1        0.0984
      9 N         141.2153  138.0262  157.0030 N.am    1  UNL1       -0.2743
     10 C         142.4963  138.4444  157.6620 C.2     1  UNL1        0.2488
     11 O         143.7864  138.3850  156.8992 O.2     1  UNL1       -0.2699
     12 C         142.4406  141.3101  166.1935 C.ar    1  UNL1        0.0641
     13 C         143.2179  140.0828  165.8195 C.ar    1  UNL1        0.0054
     14 C         143.2272  139.6052  164.3977 C.ar    1  UNL1        0.0002
     15 C         142.4592  140.3549  163.3497 C.ar    1  UNL1        0.0008
     16 C         141.6819  141.5820  163.7236 C.ar    1  UNL1        0.0115
     17 C         141.6726  142.0597  165.1455 C.ar    1  UNL1        0.0620
     18 CL        140.8954  143.2869  165.5194 Cl      1  UNL1       -0.0821
     19 O         143.5398  142.6634  168.1197 O.2     1  UNL1       -0.2699
     20 C         142.4314  141.7876  167.6154 C.2     1  UNL1        0.2498
     21 N         141.3137  141.3893  168.5330 N.am    1  UNL1       -0.2761
     22 C         141.1701  141.7874  169.9721 C.3     1  UNL1        0.0938
     23 C         139.9110  141.1672  170.5012 C.3     1  UNL1        0.0233
     24 C         139.2764  140.3857  169.3891 C.3     1  UNL1        0.0233
     25 C         140.1433  140.5231  168.1727 C.3     1  UNL1        0.0938
     26 C         141.2246  137.5486  155.5811 C.3     1  UNL1        0.1110
     27 C         140.7245  136.1741  155.2483 C.3     1  UNL1        0.0939
     28 N         141.5158  134.9681  155.6600 N.3     1  UNL1       -0.2712
     29 C         141.2617  133.5558  155.2232 C.3     1  UNL1        0.0722
     30 C         142.2889  132.6774  155.8740 C.3     1  UNL1        0.0188
     31 C         143.1778  133.5470  156.7129 C.3     1  UNL1        0.0188
     32 C         142.7000  134.9627  156.5807 C.3     1  UNL1        0.0722
@<TRIPOS>BOND
     1    19    20    2
     2    20    12    1
     3    12    13   ar
     4    13    14   ar
     5    14    15   ar
     6    15     1    1
     7     1     2   ar
     8     2     3   ar
     9     3     4   ar
    10     4     5   ar
    11     5     6   ar
    12     5     7    1
    13     7     8    1
    14     8     9    1
    15     9    26    1
    16    26    27    1
    17    27    28    1
    18    28    29    1
    19    29    30    1
    20    30    31    1
    21    31    32    1
    22     9    10   am
    23    10    11    2
    24    15    16   ar
    25    16    17   ar
    26    17    18    1
    27    20    21   am
    28    21    22    1
    29    22    23    1
    30    23    24    1
    31    24    25    1
    32    17    12   ar
    33    25    21    1
    34     6     1   ar
    35    32    28    1
    36    10     4    1
@<TRIPOS>MOLECULE
*****
 32 36 0 0 0
SMALL
GASTEIGER

@<TRIPOS>ATOM
      1 C         142.0667  140.1963  162.2639 C.ar    1  UNL1       -0.0003
      2 C         141.8558  139.0042  161.3783 C.ar    1  UNL1        0.0001
      3 C         142.4662  138.9702  160.0086 C.ar    1  UNL1        0.0042
      4 C         143.2875  140.1283  159.5245 C.ar    1  UNL1        0.0497
      5 C         143.4984  141.3204  160.4102 C.ar    1  UNL1       -0.0161
      6 C         142.8880  141.3544  161.7799 C.ar    1  UNL1       -0.0041
      7 C         144.3197  142.4784  159.9261 C.3     1  UNL1        0.0480
      8 C         144.9302  142.4444  158.5564 C.3     1  UNL1        0.0984
      9 N         144.7193  141.2523  157.6706 N.am    1  UNL1       -0.2743
     10 C         143.8980  140.0942  158.1547 C.2     1  UNL1        0.2488
     11 O         143.6871  138.9022  157.2690 O.2     1  UNL1       -0.2699
     12 C         140.2353  140.2985  166.3733 C.ar    1  UNL1        0.0641
     13 C         139.4506  140.7828  165.1901 C.ar    1  UNL1        0.0054
     14 C         140.0611  140.7487  163.8204 C.ar    1  UNL1        0.0002
     15 C         141.4562  140.2303  163.6337 C.ar    1  UNL1        0.0008
     16 C         142.2409  139.7460  164.8168 C.ar    1  UNL1        0.0115
     17 C         141.6305  139.7801  166.1866 C.ar    1  UNL1        0.0620
     18 CL        142.4152  139.2957  167.3696 Cl      1  UNL1       -0.0821
     19 O         138.6938  139.2393  168.1765 O.2     1  UNL1       -0.2699
     20 C         139.6249  140.3325  167.7430 C.2     1  UNL1        0.2498
     21 N         139.9455  141.4598  168.6791 N.am    1  UNL1       -0.2761
     22 C         139.4139  141.6277  170.0716 C.3     1  UNL1        0.0938
     23 C         139.9938  142.8888  170.6402 C.3     1  UNL1        0.0233
     24 C         140.8838  143.5004  169.5991 C.3     1  UNL1        0.0233
     25 C         140.8539  142.6172  168.3870 C.3     1  UNL1        0.0938
     26 C         145.3297  141.2183  156.3009 C.3     1  UNL1        0.1110
     27 C         145.6307  142.4999  155.5819 C.3     1  UNL1        0.0939
     28 N         146.9350  142.6664  154.8600 N.3     1  UNL1       -0.2712
     29 C         147.2512  143.7227  153.8430 C.3     1  UNL1        0.0722
     30 C         148.6637  143.5150  153.3828 C.3     1  UNL1        0.0188
     31 C         149.2204  142.3303  154.1155 C.3     1  UNL1        0.0188
     32 C         148.1520  141.8059  155.0284 C.3     1  UNL1        0.0722
@<TRIPOS>BOND
     1    19    20    2
     2    20    12    1
     3    12    13   ar
     4    13    14   ar
     5    14    15   ar
     6    15     1    1
     7     1     2   ar
     8     2     3   ar
     9     3     4   ar
    10     4     5   ar
    11     5     6   ar
    12     5     7    1
    13     7     8    1
    14     8     9    1
    15     9    26    1
    16    26    27    1
    17    27    28    1
    18    28    29    1
    19    29    30    1
    20    30    31    1
    21    31    32    1
    22     9    10   am
    23    10    11    2
    24    15    16   ar
    25    16    17   ar
    26    17    18    1
    27    20    21   am
    28    21    22    1
    29    22    23    1
    30    23    24    1
    31    24    25    1
    32    17    12   ar
    33    25    21    1
    34     6     1   ar
    35    32    28    1
    36    10     4    1
@<TRIPOS>MOLECULE
*****
 32 36 0 0 0
SMALL
GASTEIGER

@<TRIPOS>ATOM
      1 C         142.4939  142.5210  162.5330 C.ar    1  UNL1       -0.0003
      2 C         143.4775  141.9073  161.5813 C.ar    1  UNL1        0.0001
      3 C         143.5210  142.3604  160.1521 C.ar    1  UNL1        0.0042
      4 C         142.5809  143.4272  159.6745 C.ar    1  UNL1        0.0497
      5 C         141.5972  144.0409  160.6262 C.ar    1  UNL1       -0.0161
      6 C         141.5537  143.5878  162.0555 C.ar    1  UNL1       -0.0041
      7 C         140.6571  145.1077  160.1487 C.3     1  UNL1        0.0480
      8 C         140.7006  145.5608  158.7194 C.3     1  UNL1        0.0984
      9 N         141.6843  144.9471  157.7677 N.am    1  UNL1       -0.2743
     10 C         142.6244  143.8803  158.2452 C.2     1  UNL1        0.2488
     11 O         143.6081  143.2666  157.2935 O.2     1  UNL1       -0.2699
     12 C         142.3633  141.1618  166.8209 C.ar    1  UNL1        0.0641
     13 C         143.3431  142.2158  166.3977 C.ar    1  UNL1        0.0054
     14 C         143.3866  142.6688  164.9684 C.ar    1  UNL1        0.0002
     15 C         142.4503  142.0679  163.9623 C.ar    1  UNL1        0.0008
     16 C         141.4705  141.0139  164.3855 C.ar    1  UNL1        0.0115
     17 C         141.4270  140.5608  165.8148 C.ar    1  UNL1        0.0620
     18 CL        140.4472  139.5069  166.2380 Cl      1  UNL1       -0.0821
     19 O         143.0786  139.4858  168.6727 O.2     1  UNL1       -0.2699
     20 C         142.3198  140.7087  168.2502 C.2     1  UNL1        0.2498
     21 N         141.5175  141.4787  169.2569 N.am    1  UNL1       -0.2761
     22 C         141.3800  141.1484  170.7136 C.3     1  UNL1        0.0938
     23 C         140.4894  142.1797  171.3406 C.3     1  UNL1        0.0233
     24 C         140.0764  143.1473  170.2714 C.3     1  UNL1        0.0233
     25 C         140.7118  142.7141  168.9836 C.3     1  UNL1        0.0938
     26 C         141.7278  145.4002  156.3384 C.3     1  UNL1        0.1110
     27 C         140.4522  145.5862  155.5714 C.3     1  UNL1        0.0939
     28 N         139.9470  146.9682  155.2800 N.3     1  UNL1       -0.2712
     29 C         138.9681  147.7427  156.1117 C.3     1  UNL1        0.0722
     30 C         138.7481  149.0715  155.4514 C.3     1  UNL1        0.0188
     31 C         139.5911  149.1182  154.2116 C.3     1  UNL1        0.0188
     32 C         140.3321  147.8182  154.1056 C.3     1  UNL1        0.0722
@<TRIPOS>BOND
     1    19    20    2
     2    20    12    1
     3    12    13   ar
     4    13    14   ar
     5    14    15   ar
     6    15     1    1
     7     1     2   ar
     8     2     3   ar
     9     3     4   ar
    10     4     5   ar
    11     5     6   ar
    12     5     7    1
    13     7     8    1
    14     8     9    1
    15     9    26    1
    16    26    27    1
    17    27    28    1
    18    28    29    1
    19    29    30    1
    20    30    31    1
    21    31    32    1
    22     9    10   am
    23    10    11    2
    24    15    16   ar
    25    16    17   ar
    26    17    18    1
    27    20    21   am
    28    21    22    1
    29    22    23    1
    30    23    24    1
    31    24    25    1
    32    17    12   ar
    33    25    21    1
    34     6     1   ar
    35    32    28    1
    36    10     4    1
@<TRIPOS>MOLECULE
*****
 32 36 0 0 0
SMALL
GASTEIGER

@<TRIPOS>ATOM
      1 C         140.3996  138.6592  162.2453 C.ar    1  UNL1       -0.0003
      2 C         139.3441  137.7433  162.7900 C.ar    1  UNL1        0.0001
      3 C         138.9034  137.8723  164.2180 C.ar    1  UNL1        0.0042
      4 C         139.5184  138.9172  165.1012 C.ar    1  UNL1        0.0497
      5 C         140.5739  139.8331  164.5564 C.ar    1  UNL1       -0.0161
      6 C         141.0146  139.7041  163.1285 C.ar    1  UNL1       -0.0041
      7 C         141.1888  140.8780  165.4396 C.3     1  UNL1        0.0480
      8 C         140.7482  141.0070  166.8676 C.3     1  UNL1        0.0984
      9 N         139.6926  140.0910  167.4125 N.am    1  UNL1       -0.2743
     10 C         139.0777  139.0461  166.5292 C.2     1  UNL1        0.2488
     11 O         138.0221  138.1302  167.0740 O.2     1  UNL1       -0.2699
     12 C         141.7218  138.2724  157.9612 C.ar    1  UNL1        0.0641
     13 C         142.6910  137.9989  159.0729 C.ar    1  UNL1        0.0054
     14 C         142.2503  138.1279  160.5009 C.ar    1  UNL1        0.0002
     15 C         140.8403  138.5303  160.8172 C.ar    1  UNL1        0.0008
     16 C         139.8711  138.8037  159.7056 C.ar    1  UNL1        0.0115
     17 C         140.3118  138.6748  158.2776 C.ar    1  UNL1        0.0620
     18 CL        139.3425  138.9482  157.1659 Cl      1  UNL1       -0.0821
     19 O         142.4164  139.3732  155.7127 O.2     1  UNL1       -0.2699
     20 C         142.1625  138.1434  156.5333 C.2     1  UNL1        0.2498
     21 N         142.3493  136.7847  155.9259 N.am    1  UNL1       -0.2761
     22 C         142.7836  136.5003  154.5186 C.3     1  UNL1        0.0938
     23 C         142.8374  135.0117  154.3420 C.3     1  UNL1        0.0233
     24 C         142.4363  134.3761  155.6402 C.3     1  UNL1        0.0233
     25 C         142.1347  135.4719  156.6191 C.3     1  UNL1        0.0938
     26 C         139.2519  140.2200  168.8404 C.3     1  UNL1        0.1110
     27 C         140.2546  140.0945  169.9490 C.3     1  UNL1        0.0939
     28 N         141.4093  141.0487  170.0274 N.3     1  UNL1       -0.2712
     29 C         141.3239  142.5116  170.3476 C.3     1  UNL1        0.0722
     30 C         142.7140  143.0746  170.3175 C.3     1  UNL1        0.0188
     31 C         143.6584  141.9595  169.9788 C.3     1  UNL1        0.0188
     32 C         142.8521  140.7075  169.7995 C.3     1  UNL1        0.0722
@<TRIPOS>BOND
     1    19    20    2
     2    20    12    1
     3    12    13   ar
     4    13    14   ar
     5    14    15   ar
     6    15     1    1
     7     1     2   ar
     8     2     3   ar
     9     3     4   ar
    10     4     5   ar
    11     5     6   ar
    12     5     7    1
    13     7     8    1
    14     8     9    1
    15     9    26    1
    16    26    27    1
    17    27    28    1
    18    28    29    1
    19    29    30    1
    20    30    31    1
    21    31    32    1
    22     9    10   am
    23    10    11    2
    24    15    16   ar
    25    16    17   ar
    26    17    18    1
    27    20    21   am
    28    21    22    1
    29    22    23    1
    30    23    24    1
    31    24    25    1
    32    17    12   ar
    33    25    21    1
    34     6     1   ar
    35    32    28    1
    36    10     4    1
@<TRIPOS>MOLECULE
*****
 32 36 0 0 0
SMALL
GASTEIGER

@<TRIPOS>ATOM
      1 C         140.6962  138.8781  160.0709 C.ar    1  UNL1       -0.0003
      2 C         140.9605  140.3280  160.3502 C.ar    1  UNL1        0.0001
      3 C         140.6889  140.8907  161.7138 C.ar    1  UNL1        0.0042
      4 C         140.1531  140.0035  162.7982 C.ar    1  UNL1        0.0497
      5 C         139.8888  138.5537  162.5189 C.ar    1  UNL1       -0.0161
      6 C         140.1603  137.9910  161.1552 C.ar    1  UNL1       -0.0041
      7 C         139.3529  137.6665  163.6032 C.3     1  UNL1        0.0480
      8 C         139.0814  138.2292  164.9669 C.3     1  UNL1        0.0984
      9 N         139.3457  139.6791  165.2463 N.am    1  UNL1       -0.2743
     10 C         139.8815  140.5663  164.1619 C.2     1  UNL1        0.2488
     11 O         140.1458  142.0161  164.4412 O.2     1  UNL1       -0.2699
     12 C         141.5108  137.1899  155.9798 C.ar    1  UNL1        0.0641
     13 C         142.6491  137.4718  156.9152 C.ar    1  UNL1        0.0054
     14 C         142.3775  138.0345  158.2788 C.ar    1  UNL1        0.0002
     15 C         140.9677  138.3154  158.7072 C.ar    1  UNL1        0.0008
     16 C         139.8294  138.0335  157.7719 C.ar    1  UNL1        0.0115
     17 C         140.1010  137.4707  156.4082 C.ar    1  UNL1        0.0620
     18 CL        138.9627  137.1888  155.4729 Cl      1  UNL1       -0.0821
     19 O         142.0238  137.5499  153.4585 O.2     1  UNL1       -0.2699
     20 C         141.7824  136.6272  154.6162 C.2     1  UNL1        0.2498
     21 N         141.8126  135.1417  154.4103 N.am    1  UNL1       -0.2761
     22 C         142.0699  134.4367  153.1115 C.3     1  UNL1        0.0938
     23 C         142.0071  132.9597  153.3655 C.3     1  UNL1        0.0233
     24 C         141.7110  132.7518  154.8213 C.3     1  UNL1        0.0233
     25 C         141.5907  134.1004  155.4669 C.3     1  UNL1        0.0938
     26 C         139.0741  140.2418  166.6099 C.3     1  UNL1        0.1110
     27 C         140.1903  140.3717  167.6035 C.3     1  UNL1        0.0939
     28 N         140.1760  141.4876  168.6059 N.3     1  UNL1       -0.2712
     29 C         139.6581  141.4037  170.0112 C.3     1  UNL1        0.0722
     30 C         139.8391  142.7476  170.6528 C.3     1  UNL1        0.0188
     31 C         140.4687  143.6619  169.6440 C.3     1  UNL1        0.0188
     32 C         140.6769  142.8831  168.3789 C.3     1  UNL1        0.0722
@<TRIPOS>BOND
     1    19    20    2
     2    20    12    1
     3    12    13   ar
     4    13    14   ar
     5    14    15   ar
     6    15     1    1
     7     1     2   ar
     8     2     3   ar
     9     3     4   ar
    10     4     5   ar
    11     5     6   ar
    12     5     7    1
    13     7     8    1
    14     8     9    1
    15     9    26    1
    16    26    27    1
    17    27    28    1
    18    28    29    1
    19    29    30    1
    20    30    31    1
    21    31    32    1
    22     9    10   am
    23    10    11    2
    24    15    16   ar
    25    16    17   ar
    26    17    18    1
    27    20    21   am
    28    21    22    1
    29    22    23    1
    30    23    24    1
    31    24    25    1
    32    17    12   ar
    33    25    21    1
    34     6     1   ar
    35    32    28    1
    36    10     4    1
@<TRIPOS>MOLECULE
*****
 32 36 0 0 0
SMALL
GASTEIGER

@<TRIPOS>ATOM
      1 C         141.2621  139.0884  162.4042 C.ar    1  UNL1       -0.0003
      2 C         139.9655  138.5284  161.8991 C.ar    1  UNL1        0.0001
      3 C         139.7745  138.2860  160.4312 C.ar    1  UNL1        0.0042
      4 C         140.8800  138.6035  159.4685 C.ar    1  UNL1        0.0497
      5 C         142.1766  139.1635  159.9736 C.ar    1  UNL1       -0.0161
      6 C         142.3677  139.4060  161.4415 C.ar    1  UNL1       -0.0041
      7 C         143.2822  139.4811  159.0108 C.3     1  UNL1        0.0480
      8 C         143.0912  139.2386  157.5430 C.3     1  UNL1        0.0984
      9 N         141.7945  138.6786  157.0378 N.am    1  UNL1       -0.2743
     10 C         140.6890  138.3611  158.0005 C.2     1  UNL1        0.2488
     11 O         139.3924  137.8011  157.4954 O.2     1  UNL1       -0.2699
     12 C         141.8354  139.8158  166.8079 C.ar    1  UNL1        0.0641
     13 C         143.0030  139.9209  165.8721 C.ar    1  UNL1        0.0054
     14 C         142.8119  139.6785  164.4042 C.ar    1  UNL1        0.0002
     15 C         141.4532  139.3309  163.8721 C.ar    1  UNL1        0.0008
     16 C         140.2856  139.2258  164.8079 C.ar    1  UNL1        0.0115
     17 C         140.4767  139.4682  166.2758 C.ar    1  UNL1        0.0620
     18 CL        139.3091  139.3631  167.2116 Cl      1  UNL1       -0.0821
     19 O         142.7376  139.0407  169.1177 O.2     1  UNL1       -0.2699
     20 C         142.0265  140.0583  168.2758 C.2     1  UNL1        0.2498
     21 N         141.5065  141.3183  168.9017 N.am    1  UNL1       -0.2761
     22 C         141.6223  141.6970  170.3485 C.3     1  UNL1        0.0938
     23 C         140.9668  143.0336  170.5317 C.3     1  UNL1        0.0233
     24 C         140.4459  143.4812  169.1981 C.3     1  UNL1        0.0233
     25 C         140.7795  142.4211  168.1907 C.3     1  UNL1        0.0938
     26 C         141.6035  138.4362  155.5699 C.3     1  UNL1        0.1110
     27 C         142.4128  137.3836  154.8720 C.3     1  UNL1        0.0939
     28 N         142.4063  135.9724  155.3808 N.3     1  UNL1       -0.2712
     29 C         143.2919  135.4195  156.4578 C.3     1  UNL1        0.0722
     30 C         142.9459  133.9718  156.6445 C.3     1  UNL1        0.0188
     31 C         141.8466  133.6302  155.6828 C.3     1  UNL1        0.0188
     32 C         141.5131  134.8667  154.9018 C.3     1  UNL1        0.0722
@<TRIPOS>BOND
     1    19    20    2
     2    20    12    1
     3    12    13   ar
     4    13    14   ar
     5    14    15   ar
     6    15     1    1
     7     1     2   ar
     8     2     3   ar
     9     3     4   ar
    10     4     5   ar
    11     5     6   ar
    12     5     7    1
    13     7     8    1
    14     8     9    1
    15     9    26    1
    16    26    27    1
    17    27    28    1
    18    28    29    1
    19    29    30    1
    20    30    31    1
    21    31    32    1
    22     9    10   am
    23    10    11    2
    24    15    16   ar
    25    16    17   ar
    26    17    18    1
    27    20    21   am
    28    21    22    1
    29    22    23    1
    30    23    24    1
    31    24    25    1
    32    17    12   ar
    33    25    21    1
    34     6     1   ar
    35    32    28    1
    36    10     4    1
@<TRIPOS>MOLECULE
*****
 32 36 0 0 0
SMALL
GASTEIGER

@<TRIPOS>ATOM
      1 C         138.9966  141.5171  162.5098 C.ar    1  UNL1       -0.0003
      2 C         138.1750  140.6686  161.5851 C.ar    1  UNL1        0.0001
      3 C         138.0616  141.0335  160.1346 C.ar    1  UNL1        0.0042
      4 C         138.7698  142.2467  159.6088 C.ar    1  UNL1        0.0497
      5 C         139.5914  143.0952  160.5335 C.ar    1  UNL1       -0.0161
      6 C         139.7048  142.7303  161.9840 C.ar    1  UNL1       -0.0041
      7 C         140.2996  144.3084  160.0077 C.3     1  UNL1        0.0480
      8 C         140.1862  144.6732  158.5572 C.3     1  UNL1        0.0984
      9 N         139.3645  143.8248  157.6325 N.am    1  UNL1       -0.2743
     10 C         138.6564  142.6115  158.1583 C.2     1  UNL1        0.2488
     11 O         137.8348  141.7631  157.2336 O.2     1  UNL1       -0.2699
     12 C         139.3369  140.4227  166.8615 C.ar    1  UNL1        0.0641
     13 C         139.8898  141.7280  166.3709 C.ar    1  UNL1        0.0054
     14 C         139.7763  142.0927  164.9204 C.ar    1  UNL1        0.0002
     15 C         139.1100  141.1522  163.9604 C.ar    1  UNL1        0.0008
     16 C         138.5572  139.8470  164.4510 C.ar    1  UNL1        0.0115
     17 C         138.6706  139.4822  165.9016 C.ar    1  UNL1        0.0620
     18 CL        138.1178  138.1770  166.3921 Cl      1  UNL1       -0.0821
     19 O         138.2590  139.5157  169.0445 O.2     1  UNL1       -0.2699
     20 C         139.4504  140.0579  168.3120 C.2     1  UNL1        0.2498
     21 N         140.7553  140.2354  169.0301 N.am    1  UNL1       -0.2761
     22 C         141.0188  139.9161  170.4718 C.3     1  UNL1        0.0938
     23 C         142.4521  140.2468  170.7654 C.3     1  UNL1        0.0233
     24 C         143.0745  140.7705  169.5050 C.3     1  UNL1        0.0233
     25 C         142.0258  140.7634  168.4326 C.3     1  UNL1        0.0938
     26 C         139.2511  144.1896  156.1820 C.3     1  UNL1        0.1110
     27 C         140.2494  145.1226  155.5630 C.3     1  UNL1        0.0939
     28 N         139.8809  146.5544  155.3094 N.3     1  UNL1       -0.2712
     29 C         138.9780  147.3965  156.1612 C.3     1  UNL1        0.0722
     30 C         138.8897  148.7581  155.5378 C.3     1  UNL1        0.0188
     31 C         139.7382  148.7573  154.3007 C.3     1  UNL1        0.0188
     32 C         140.3507  147.3953  154.1596 C.3     1  UNL1        0.0722
@<TRIPOS>BOND
     1    19    20    2
     2    20    12    1
     3    12    13   ar
     4    13    14   ar
     5    14    15   ar
     6    15     1    1
     7     1     2   ar
     8     2     3   ar
     9     3     4   ar
    10     4     5   ar
    11     5     6   ar
    12     5     7    1
    13     7     8    1
    14     8     9    1
    15     9    26    1
    16    26    27    1
    17    27    28    1
    18    28    29    1
    19    29    30    1
    20    30    31    1
    21    31    32    1
    22     9    10   am
    23    10    11    2
    24    15    16   ar
    25    16    17   ar
    26    17    18    1
    27    20    21   am
    28    21    22    1
    29    22    23    1
    30    23    24    1
    31    24    25    1
    32    17    12   ar
    33    25    21    1
    34     6     1   ar
    35    32    28    1
    36    10     4    1
