@<TRIPOS>MOLECULE
*****
 31 33 0 0 0
SMALL
GASTEIGER

@<TRIPOS>ATOM
      1 C         138.2314  140.3575  159.6140 C.3     1  UNL1        0.1684
      2 N         138.6476  139.4569  158.4890 N.am    1  UNL1       -0.2925
      3 C         139.9553  138.7254  158.5584 C.2     1  UNL1        0.2375
      4 O         140.8467  138.8943  159.7529 O.2     1  UNL1       -0.2736
      5 H         138.0626  139.3460  157.7050 H       1  UNL1        0.1504
      6 C         140.3715  137.8248  157.4334 C.3     1  UNL1        0.1339
      7 C         141.8159  137.4587  157.2609 C.3     1  UNL1        0.0543
      8 C         142.2322  136.5581  156.1359 C.3     1  UNL1        0.1137
      9 O         143.6766  136.1920  155.9635 O.3     1  UNL1       -0.3844
     10 C         141.2042  136.0237  155.1834 C.3     1  UNL1        0.0464
     11 C         139.7598  136.3898  155.3558 C.3     1  UNL1        0.0714
     12 N         139.3435  137.2903  156.4808 N.3     1  UNL1       -0.2912
     13 H         143.7726  135.6080  155.1950 H       1  UNL1        0.2103
     14 H         138.6667  136.7702  157.0393 H       1  UNL1        0.1236
     15 C         138.5364  141.8249  159.5522 C.1     1  UNL1        0.0927
     16 N         138.8414  143.2923  159.4905 N.1     1  UNL1       -0.1942
     17 C         137.5101  139.7908  160.8008 C.3     1  UNL1        0.0616
     18 C         139.0079  140.6369  164.9590 C.ar    1  UNL1       -0.0000
     19 C         139.5974  139.5094  164.1644 C.ar    1  UNL1       -0.0003
     20 C         139.0981  139.2274  162.7784 C.ar    1  UNL1       -0.0042
     21 C         138.0094  140.0728  162.1869 C.ar    1  UNL1       -0.0194
     22 C         137.4199  141.2002  162.9815 C.ar    1  UNL1       -0.0042
     23 C         137.9192  141.4823  164.3675 C.ar    1  UNL1       -0.0003
     24 C         140.5057  141.4830  169.1172 C.ar    1  UNL1        0.0684
     25 C         139.8207  140.1828  168.8169 C.ar    1  UNL1        0.0103
     26 C         139.3215  139.9007  167.4308 C.ar    1  UNL1        0.0007
     27 C         139.5072  140.9189  166.3451 C.ar    1  UNL1        0.0000
     28 C         140.1922  142.2191  166.6454 C.ar    1  UNL1        0.0007
     29 C         140.6915  142.5011  168.0315 C.ar    1  UNL1        0.0103
     30 N         141.5043  142.0470  171.8894 N.1     1  UNL1       -0.1908
     31 C         141.0050  141.7650  170.5033 C.1     1  UNL1        0.1004
@<TRIPOS>BOND
     1    30    31    3
     2    31    24    1
     3    24    25   ar
     4    25    26   ar
     5    26    27   ar
     6    27    18    1
     7    18    19   ar
     8    19    20   ar
     9    20    21   ar
    10    21    17    1
    11     1    17    1
    12     1    15    1
    13    15    16    3
    14     1     2    1
    15     2     3   am
    16     3     4    2
    17     6     3    1
    18     6     7    1
    19     7     8    1
    20     8     9    1
    21     8    10    1
    22    10    11    1
    23    11    12    1
    24    21    22   ar
    25    22    23   ar
    26    27    28   ar
    27    28    29   ar
    28    29    24   ar
    29    23    18   ar
    30    12     6    1
    31     2     5    1
    32     9    13    1
    33    12    14    1
@<TRIPOS>MOLECULE
*****
 31 33 0 0 0
SMALL
GASTEIGER

@<TRIPOS>ATOM
      1 C         142.2120  139.5178  167.2479 C.3     1  UNL1        0.1684
      2 N         141.0199  140.2359  166.6879 N.am    1  UNL1       -0.2925
      3 C         141.2004  141.5356  165.9613 C.2     1  UNL1        0.2375
      4 O         142.5729  142.1174  165.7946 O.2     1  UNL1       -0.2736
      5 H         140.1191  139.8540  166.7973 H       1  UNL1        0.1504
      6 C         140.0084  142.2536  165.4013 C.3     1  UNL1        0.1339
      7 C         138.9683  141.4940  164.6323 C.3     1  UNL1        0.0543
      8 C         137.7763  142.2120  164.0723 C.3     1  UNL1        0.1137
      9 O         136.7363  141.4524  163.3033 O.3     1  UNL1       -0.3844
     10 C         137.6243  143.6895  164.2813 C.3     1  UNL1        0.0464
     11 C         138.6644  144.4491  165.0503 C.3     1  UNL1        0.0714
     12 N         139.8564  143.7312  165.6103 N.3     1  UNL1       -0.2912
     13 H         136.0390  142.0615  163.0140 H       1  UNL1        0.2103
     14 H         139.8469  143.8865  166.6183 H       1  UNL1        0.1236
     15 C         142.6167  139.7364  168.6756 C.1     1  UNL1        0.0927
     16 N         143.0214  139.9550  170.1033 N.1     1  UNL1       -0.1942
     17 C         142.9993  138.5813  166.3802 C.3     1  UNL1        0.0616
     18 C         142.0997  138.2982  161.9801 C.ar    1  UNL1       -0.0000
     19 C         143.2465  139.1383  162.4586 C.ar    1  UNL1       -0.0003
     20 C         143.5463  139.2327  163.9253 C.ar    1  UNL1       -0.0042
     21 C         142.6994  138.4869  164.9135 C.ar    1  UNL1       -0.0194
     22 C         141.5526  137.6468  164.4349 C.ar    1  UNL1       -0.0042
     23 C         141.2528  137.5524  162.9682 C.ar    1  UNL1       -0.0003
     24 C         141.2001  138.0151  157.5800 C.ar    1  UNL1        0.0684
     25 C         142.5634  137.6550  158.0915 C.ar    1  UNL1        0.0103
     26 C         142.8633  137.7493  159.5582 C.ar    1  UNL1        0.0007
     27 C         141.7998  138.2038  160.5134 C.ar    1  UNL1        0.0000
     28 C         140.4365  138.5640  160.0019 C.ar    1  UNL1        0.0007
     29 C         140.1367  138.4696  158.5352 C.ar    1  UNL1        0.0103
     30 N         140.6004  137.8264  154.6466 N.1     1  UNL1       -0.1908
     31 C         140.9003  137.9208  156.1133 C.1     1  UNL1        0.1004
@<TRIPOS>BOND
     1    30    31    3
     2    31    24    1
     3    24    25   ar
     4    25    26   ar
     5    26    27   ar
     6    27    18    1
     7    18    19   ar
     8    19    20   ar
     9    20    21   ar
    10    21    17    1
    11     1    17    1
    12     1    15    1
    13    15    16    3
    14     1     2    1
    15     2     3   am
    16     3     4    2
    17     6     3    1
    18     6     7    1
    19     7     8    1
    20     8     9    1
    21     8    10    1
    22    10    11    1
    23    11    12    1
    24    21    22   ar
    25    22    23   ar
    26    27    28   ar
    27    28    29   ar
    28    29    24   ar
    29    23    18   ar
    30    12     6    1
    31     2     5    1
    32     9    13    1
    33    12    14    1
@<TRIPOS>MOLECULE
*****
 31 33 0 0 0
SMALL
GASTEIGER

@<TRIPOS>ATOM
      1 C         142.8615  138.4530  159.4879 C.3     1  UNL1        0.1684
      2 N         142.7146  139.9354  159.6640 N.am    1  UNL1       -0.2925
      3 C         141.3684  140.5254  159.9633 C.2     1  UNL1        0.2375
      4 O         140.1690  139.6330  160.0866 O.2     1  UNL1       -0.2736
      5 H         143.5018  140.5211  159.5831 H       1  UNL1        0.1504
      6 C         141.2215  142.0078  160.1394 C.3     1  UNL1        0.1339
      7 C         142.1715  142.7554  161.0274 C.3     1  UNL1        0.0543
      8 C         142.0247  144.2377  161.2035 C.3     1  UNL1        0.1137
      9 O         142.9747  144.9853  162.0916 O.3     1  UNL1       -0.3844
     10 C         140.9279  144.9725  160.4915 C.3     1  UNL1        0.0464
     11 C         139.9779  144.2250  159.6034 C.3     1  UNL1        0.0714
     12 N         140.1247  142.7426  159.4274 N.3     1  UNL1       -0.2912
     13 H         142.7417  145.9269  162.0944 H       1  UNL1        0.2103
     14 H         140.2582  142.5764  158.4299 H       1  UNL1        0.1236
     15 C         142.5999  137.8271  158.1501 C.1     1  UNL1        0.0927
     16 N         142.3383  137.2011  156.8123 N.1     1  UNL1       -0.1942
     17 C         143.2699  137.5966  160.6497 C.3     1  UNL1        0.0616
     18 C         142.2608  138.8679  164.8468 C.ar    1  UNL1       -0.0000
     19 C         143.5773  139.2559  164.2416 C.ar    1  UNL1       -0.0003
     20 C         143.9137  138.8321  162.8426 C.ar    1  UNL1       -0.0042
     21 C         142.9335  138.0203  162.0487 C.ar    1  UNL1       -0.0194
     22 C         141.6170  137.6323  162.6538 C.ar    1  UNL1       -0.0042
     23 C         141.2806  138.0561  164.0528 C.ar    1  UNL1       -0.0003
     24 C         141.2516  140.1392  169.0438 C.ar    1  UNL1        0.0684
     25 C         140.2397  140.2985  167.9481 C.ar    1  UNL1        0.0103
     26 C         140.5761  139.8747  166.5491 C.ar    1  UNL1        0.0007
     27 C         141.9244  139.2916  166.2458 C.ar    1  UNL1        0.0000
     28 C         142.9363  139.1323  167.3415 C.ar    1  UNL1        0.0007
     29 C         142.5999  139.5561  168.7405 C.ar    1  UNL1        0.0103
     30 N         140.5789  140.9867  171.8419 N.1     1  UNL1       -0.1908
     31 C         140.9153  140.5630  170.4429 C.1     1  UNL1        0.1004
@<TRIPOS>BOND
     1    30    31    3
     2    31    24    1
     3    24    25   ar
     4    25    26   ar
     5    26    27   ar
     6    27    18    1
     7    18    19   ar
     8    19    20   ar
     9    20    21   ar
    10    21    17    1
    11     1    17    1
    12     1    15    1
    13    15    16    3
    14     1     2    1
    15     2     3   am
    16     3     4    2
    17     6     3    1
    18     6     7    1
    19     7     8    1
    20     8     9    1
    21     8    10    1
    22    10    11    1
    23    11    12    1
    24    21    22   ar
    25    22    23   ar
    26    27    28   ar
    27    28    29   ar
    28    29    24   ar
    29    23    18   ar
    30    12     6    1
    31     2     5    1
    32     9    13    1
    33    12    14    1
@<TRIPOS>MOLECULE
*****
 31 33 0 0 0
SMALL
GASTEIGER

@<TRIPOS>ATOM
      1 C         142.5554  138.4497  159.4436 C.3     1  UNL1        0.1684
      2 N         141.7491  139.6880  159.7018 N.am    1  UNL1       -0.2925
      3 C         142.4411  140.9845  160.0018 C.2     1  UNL1        0.2375
      4 O         143.9394  141.0429  160.0435 O.2     1  UNL1       -0.2736
      5 H         140.7657  139.6497  159.6744 H       1  UNL1        0.1504
      6 C         141.6348  142.2228  160.2600 C.3     1  UNL1        0.1339
      7 C         140.2025  142.1089  160.6906 C.3     1  UNL1        0.0543
      8 C         139.3962  143.3471  160.9488 C.3     1  UNL1        0.1137
      9 O         137.9639  143.2332  161.3794 O.3     1  UNL1       -0.3844
     10 C         140.0223  144.6993  160.7764 C.3     1  UNL1        0.0464
     11 C         141.4546  144.8132  160.3458 C.3     1  UNL1        0.0714
     12 N         142.2609  143.5750  160.0876 N.3     1  UNL1       -0.2912
     13 H         137.5917  144.1205  161.5024 H       1  UNL1        0.2103
     14 H         143.0637  143.6100  160.7158 H       1  UNL1        0.1236
     15 C         142.9387  138.0833  158.0405 C.1     1  UNL1        0.0927
     16 N         143.3219  137.7169  156.6373 N.1     1  UNL1       -0.1942
     17 C         142.9783  137.5778  160.5885 C.3     1  UNL1        0.0616
     18 C         142.0648  138.8165  164.8171 C.ar    1  UNL1       -0.0000
     19 C         141.0612  138.0223  164.0348 C.ar    1  UNL1       -0.0003
     20 C         141.3657  137.6094  162.6253 C.ar    1  UNL1       -0.0042
     21 C         142.6738  137.9907  161.9981 C.ar    1  UNL1       -0.0194
     22 C         143.6774  138.7849  162.7804 C.ar    1  UNL1       -0.0042
     23 C         143.3728  139.1979  164.1899 C.ar    1  UNL1       -0.0003
     24 C         141.1512  140.0553  169.0457 C.ar    1  UNL1        0.0684
     25 C         142.5223  139.5635  168.6879 C.ar    1  UNL1        0.0103
     26 C         142.8268  139.1506  167.2783 C.ar    1  UNL1        0.0007
     27 C         141.7602  139.2295  166.2267 C.ar    1  UNL1        0.0000
     28 C         140.3891  139.7212  166.5845 C.ar    1  UNL1        0.0007
     29 C         140.0846  140.1341  167.9940 C.ar    1  UNL1        0.0103
     30 N         140.5421  140.8811  171.8648 N.1     1  UNL1       -0.1908
     31 C         140.8466  140.4682  170.4552 C.1     1  UNL1        0.1004
@<TRIPOS>BOND
     1    30    31    3
     2    31    24    1
     3    24    25   ar
     4    25    26   ar
     5    26    27   ar
     6    27    18    1
     7    18    19   ar
     8    19    20   ar
     9    20    21   ar
    10    21    17    1
    11     1    17    1
    12     1    15    1
    13    15    16    3
    14     1     2    1
    15     2     3   am
    16     3     4    2
    17     6     3    1
    18     6     7    1
    19     7     8    1
    20     8     9    1
    21     8    10    1
    22    10    11    1
    23    11    12    1
    24    21    22   ar
    25    22    23   ar
    26    27    28   ar
    27    28    29   ar
    28    29    24   ar
    29    23    18   ar
    30    12     6    1
    31     2     5    1
    32     9    13    1
    33    12    14    1
@<TRIPOS>MOLECULE
*****
 31 33 0 0 0
SMALL
GASTEIGER

@<TRIPOS>ATOM
      1 C         142.4822  138.3457  159.5311 C.3     1  UNL1        0.1684
      2 N         143.3316  138.7628  158.3672 N.am    1  UNL1       -0.2925
      3 C         143.8995  140.1500  158.3122 C.2     1  UNL1        0.2375
      4 O         143.6180  141.1202  159.4210 O.2     1  UNL1       -0.2736
      5 H         143.5163  138.1260  157.6395 H       1  UNL1        0.1504
      6 C         144.7489  140.5671  157.1483 C.3     1  UNL1        0.1339
      7 C         145.4940  141.8682  157.1917 C.3     1  UNL1        0.0543
      8 C         146.3434  142.2853  156.0279 C.3     1  UNL1        0.1137
      9 O         147.0884  143.5865  156.0713 O.3     1  UNL1       -0.3844
     10 C         146.4477  141.4013  154.8206 C.3     1  UNL1        0.0464
     11 C         145.7026  140.1001  154.7772 C.3     1  UNL1        0.0714
     12 N         144.8533  139.6830  155.9410 N.3     1  UNL1       -0.2912
     13 H         147.5848  143.7026  155.2460 H       1  UNL1        0.2103
     14 H         145.2157  138.7858  156.2635 H       1  UNL1        0.1236
     15 C         141.0158  138.6615  159.5407 C.1     1  UNL1        0.0927
     16 N         139.5494  138.9772  159.5502 N.1     1  UNL1       -0.1942
     17 C         143.0991  137.6129  160.6854 C.3     1  UNL1        0.0616
     18 C         142.1376  138.8449  164.9053 C.ar    1  UNL1       -0.0000
     19 C         143.3840  139.3510  164.2418 C.ar    1  UNL1       -0.0003
     20 C         143.7045  138.9403  162.8352 C.ar    1  UNL1       -0.0042
     21 C         142.7786  138.0236  162.0920 C.ar    1  UNL1       -0.0194
     22 C         141.5322  137.5176  162.7556 C.ar    1  UNL1       -0.0042
     23 C         141.2117  137.9282  164.1622 C.ar    1  UNL1       -0.0003
     24 C         141.1762  140.0769  169.1253 C.ar    1  UNL1        0.0684
     25 C         140.1253  140.1698  168.0589 C.ar    1  UNL1        0.0103
     26 C         140.4458  139.7592  166.6523 C.ar    1  UNL1        0.0007
     27 C         141.8171  139.2556  166.3120 C.ar    1  UNL1        0.0000
     28 C         142.8679  139.1626  167.3783 C.ar    1  UNL1        0.0007
     29 C         142.5475  139.5733  168.7849 C.ar    1  UNL1        0.0103
     30 N         140.5352  140.8982  171.9385 N.1     1  UNL1       -0.1908
     31 C         140.8557  140.4875  170.5319 C.1     1  UNL1        0.1004
@<TRIPOS>BOND
     1    30    31    3
     2    31    24    1
     3    24    25   ar
     4    25    26   ar
     5    26    27   ar
     6    27    18    1
     7    18    19   ar
     8    19    20   ar
     9    20    21   ar
    10    21    17    1
    11     1    17    1
    12     1    15    1
    13    15    16    3
    14     1     2    1
    15     2     3   am
    16     3     4    2
    17     6     3    1
    18     6     7    1
    19     7     8    1
    20     8     9    1
    21     8    10    1
    22    10    11    1
    23    11    12    1
    24    21    22   ar
    25    22    23   ar
    26    27    28   ar
    27    28    29   ar
    28    29    24   ar
    29    23    18   ar
    30    12     6    1
    31     2     5    1
    32     9    13    1
    33    12    14    1
@<TRIPOS>MOLECULE
*****
 31 33 0 0 0
SMALL
GASTEIGER

@<TRIPOS>ATOM
      1 C         139.7278  139.2322  159.6805 C.3     1  UNL1        0.1684
      2 N         140.0747  140.6676  159.9443 N.am    1  UNL1       -0.2925
      3 C         139.0379  141.6004  160.4965 C.2     1  UNL1        0.2375
      4 O         137.6543  141.0980  160.7849 O.2     1  UNL1       -0.2736
      5 H         140.9828  140.9974  159.7550 H       1  UNL1        0.1504
      6 C         139.3848  143.0358  160.7604 C.3     1  UNL1        0.1339
      7 C         139.4408  143.5470  162.1694 C.3     1  UNL1        0.0543
      8 C         139.7876  144.9823  162.4333 C.3     1  UNL1        0.1137
      9 O         139.8436  145.4935  163.8424 O.3     1  UNL1       -0.3844
     10 C         140.0784  145.9063  161.2881 C.3     1  UNL1        0.0464
     11 C         140.0225  145.3950  159.8790 C.3     1  UNL1        0.0714
     12 N         139.6756  143.9598  159.6151 N.3     1  UNL1       -0.2912
     13 H         140.0801  146.4342  163.8359 H       1  UNL1        0.2103
     14 H         140.4604  143.5565  159.1034 H       1  UNL1        0.1236
     15 C         139.4786  138.7667  158.2765 C.1     1  UNL1        0.0927
     16 N         139.2294  138.3012  156.8725 N.1     1  UNL1       -0.1942
     17 C         139.6302  138.2624  160.8206 C.3     1  UNL1        0.0616
     18 C         139.9619  139.7335  165.0604 C.ar    1  UNL1       -0.0000
     19 C         141.1648  139.7502  164.1645 C.ar    1  UNL1       -0.0003
     20 C         141.0542  139.2599  162.7512 C.ar    1  UNL1       -0.0042
     21 C         139.7408  138.7528  162.2339 C.ar    1  UNL1       -0.0194
     22 C         138.5379  138.7361  163.1298 C.ar    1  UNL1       -0.0042
     23 C         138.6485  139.2264  164.5431 C.ar    1  UNL1       -0.0003
     24 C         140.2937  141.2045  169.3002 C.ar    1  UNL1        0.0684
     25 C         141.1701  141.7895  168.2327 C.ar    1  UNL1        0.0103
     26 C         141.0595  141.2991  166.8194 C.ar    1  UNL1        0.0007
     27 C         140.0725  140.2238  166.4737 C.ar    1  UNL1        0.0000
     28 C         139.1961  139.6389  167.5413 C.ar    1  UNL1        0.0007
     29 C         139.3067  140.1292  168.9545 C.ar    1  UNL1        0.0103
     30 N         140.5149  142.1852  172.1268 N.1     1  UNL1       -0.1908
     31 C         140.4043  141.6949  170.7135 C.1     1  UNL1        0.1004
@<TRIPOS>BOND
     1    30    31    3
     2    31    24    1
     3    24    25   ar
     4    25    26   ar
     5    26    27   ar
     6    27    18    1
     7    18    19   ar
     8    19    20   ar
     9    20    21   ar
    10    21    17    1
    11     1    17    1
    12     1    15    1
    13    15    16    3
    14     1     2    1
    15     2     3   am
    16     3     4    2
    17     6     3    1
    18     6     7    1
    19     7     8    1
    20     8     9    1
    21     8    10    1
    22    10    11    1
    23    11    12    1
    24    21    22   ar
    25    22    23   ar
    26    27    28   ar
    27    28    29   ar
    28    29    24   ar
    29    23    18   ar
    30    12     6    1
    31     2     5    1
    32     9    13    1
    33    12    14    1
@<TRIPOS>MOLECULE
*****
 31 33 0 0 0
SMALL
GASTEIGER

@<TRIPOS>ATOM
      1 C         142.3004  139.7552  170.1432 C.3     1  UNL1        0.1684
      2 N         143.1954  138.9785  171.0628 N.am    1  UNL1       -0.2925
      3 C         143.8396  137.7099  170.5878 C.2     1  UNL1        0.2375
      4 O         143.5889  137.2180  169.1931 O.2     1  UNL1       -0.2736
      5 H         143.3600  139.3013  171.9782 H       1  UNL1        0.1504
      6 C         144.7346  136.9332  171.5075 C.3     1  UNL1        0.1339
      7 C         144.5206  135.4604  171.6951 C.3     1  UNL1        0.0543
      8 C         145.4155  134.6837  172.6147 C.3     1  UNL1        0.1137
      9 O         145.2015  133.2109  172.8024 O.3     1  UNL1       -0.3844
     10 C         146.5245  135.3797  173.3467 C.3     1  UNL1        0.0464
     11 C         146.7385  136.8524  173.1590 C.3     1  UNL1        0.0714
     12 N         145.8436  137.6292  172.2394 N.3     1  UNL1       -0.2912
     13 H         145.8608  132.8651  173.4242 H       1  UNL1        0.2103
     14 H         146.4441  138.0515  171.5314 H       1  UNL1        0.1236
     15 C         140.8218  139.7951  170.3925 C.1     1  UNL1        0.0927
     16 N         139.3432  139.8350  170.6419 N.1     1  UNL1       -0.1942
     17 C         142.8840  140.4920  168.9742 C.3     1  UNL1        0.0616
     18 C         140.8009  140.3962  164.9866 C.ar    1  UNL1       -0.0000
     19 C         140.5624  141.5377  165.9301 C.ar    1  UNL1       -0.0003
     20 C         141.2568  141.5696  167.2593 C.ar    1  UNL1       -0.0042
     21 C         142.1896  140.4601  167.6450 C.ar    1  UNL1       -0.0194
     22 C         142.4280  139.3186  166.7015 C.ar    1  UNL1       -0.0042
     23 C         141.7336  139.2867  165.3723 C.ar    1  UNL1       -0.0003
     24 C         138.7177  140.3004  160.9990 C.ar    1  UNL1        0.0684
     25 C         138.1700  139.5104  162.1504 C.ar    1  UNL1        0.0103
     26 C         138.8644  139.5424  163.4796 C.ar    1  UNL1        0.0007
     27 C         140.1065  140.3643  163.6574 C.ar    1  UNL1        0.0000
     28 C         140.6541  141.1543  162.5059 C.ar    1  UNL1        0.0007
     29 C         139.9598  141.1223  161.1767 C.ar    1  UNL1        0.0103
     30 N         137.3289  140.2365  158.3405 N.1     1  UNL1       -0.1908
     31 C         138.0233  140.2685  159.6697 C.1     1  UNL1        0.1004
@<TRIPOS>BOND
     1    30    31    3
     2    31    24    1
     3    24    25   ar
     4    25    26   ar
     5    26    27   ar
     6    27    18    1
     7    18    19   ar
     8    19    20   ar
     9    20    21   ar
    10    21    17    1
    11     1    17    1
    12     1    15    1
    13    15    16    3
    14     1     2    1
    15     2     3   am
    16     3     4    2
    17     6     3    1
    18     6     7    1
    19     7     8    1
    20     8     9    1
    21     8    10    1
    22    10    11    1
    23    11    12    1
    24    21    22   ar
    25    22    23   ar
    26    27    28   ar
    27    28    29   ar
    28    29    24   ar
    29    23    18   ar
    30    12     6    1
    31     2     5    1
    32     9    13    1
    33    12    14    1
@<TRIPOS>MOLECULE
*****
 31 33 0 0 0
SMALL
GASTEIGER

@<TRIPOS>ATOM
      1 C         139.6457  138.8101  159.8832 C.3     1  UNL1        0.1684
      2 N         140.5278  139.9987  160.1268 N.am    1  UNL1       -0.2925
      3 C         141.8600  139.8201  160.7926 C.2     1  UNL1        0.2375
      4 O         142.3101  138.4529  161.2148 O.2     1  UNL1       -0.2736
      5 H         140.2324  140.8960  159.8497 H       1  UNL1        0.1504
      6 C         142.7421  141.0086  161.0362 C.3     1  UNL1        0.1339
      7 C         142.1671  142.3930  160.9820 C.3     1  UNL1        0.0543
      8 C         143.0492  143.5815  161.2256 C.3     1  UNL1        0.1137
      9 O         142.4742  144.9659  161.1714 O.3     1  UNL1       -0.3844
     10 C         144.5062  143.3857  161.5234 C.3     1  UNL1        0.0464
     11 C         145.0812  142.0013  161.5776 C.3     1  UNL1        0.0714
     12 N         144.1991  140.8128  161.3340 N.3     1  UNL1       -0.2912
     13 H         143.1736  145.6137  161.3503 H       1  UNL1        0.2103
     14 H         144.2532  140.2299  162.1693 H       1  UNL1        0.1236
     15 C         139.5676  138.2022  158.5142 C.1     1  UNL1        0.0927
     16 N         139.4896  137.5942  157.1451 N.1     1  UNL1       -0.1942
     17 C         138.8417  138.2296  161.0086 C.3     1  UNL1        0.0616
     18 C         139.4347  139.7350  165.2077 C.ar    1  UNL1       -0.0000
     19 C         140.0011  138.4072  164.7999 C.ar    1  UNL1       -0.0003
     20 C         139.8034  137.9055  163.4002 C.ar    1  UNL1       -0.0042
     21 C         139.0394  138.7314  162.4083 C.ar    1  UNL1       -0.0194
     22 C         138.4730  140.0591  162.8161 C.ar    1  UNL1       -0.0042
     23 C         138.6707  140.5609  164.2158 C.ar    1  UNL1       -0.0003
     24 C         140.0277  141.2403  169.4068 C.ar    1  UNL1        0.0684
     25 C         140.7315  141.9096  168.2637 C.ar    1  UNL1        0.0103
     26 C         140.5338  141.4078  166.8640 C.ar    1  UNL1        0.0007
     27 C         139.6324  140.2367  166.6074 C.ar    1  UNL1        0.0000
     28 C         138.9286  139.5674  167.7505 C.ar    1  UNL1        0.0007
     29 C         139.1263  140.0692  169.1502 C.ar    1  UNL1        0.0103
     30 N         140.4231  142.2438  172.2062 N.1     1  UNL1       -0.1908
     31 C         140.2254  141.7420  170.8065 C.1     1  UNL1        0.1004
@<TRIPOS>BOND
     1    30    31    3
     2    31    24    1
     3    24    25   ar
     4    25    26   ar
     5    26    27   ar
     6    27    18    1
     7    18    19   ar
     8    19    20   ar
     9    20    21   ar
    10    21    17    1
    11     1    17    1
    12     1    15    1
    13    15    16    3
    14     1     2    1
    15     2     3   am
    16     3     4    2
    17     6     3    1
    18     6     7    1
    19     7     8    1
    20     8     9    1
    21     8    10    1
    22    10    11    1
    23    11    12    1
    24    21    22   ar
    25    22    23   ar
    26    27    28   ar
    27    28    29   ar
    28    29    24   ar
    29    23    18   ar
    30    12     6    1
    31     2     5    1
    32     9    13    1
    33    12    14    1
@<TRIPOS>MOLECULE
*****
 31 33 0 0 0
SMALL
GASTEIGER

@<TRIPOS>ATOM
      1 C         142.5875  139.6695  167.0260 C.3     1  UNL1        0.1684
      2 N         141.7892  140.7443  166.3495 N.am    1  UNL1       -0.2925
      3 C         140.3475  140.5067  166.0103 C.2     1  UNL1        0.2375
      4 O         139.7041  139.1945  166.3476 O.2     1  UNL1       -0.2736
      5 H         142.2115  141.6056  166.1280 H       1  UNL1        0.1504
      6 C         139.5493  141.5815  165.3337 C.3     1  UNL1        0.1339
      7 C         140.1253  142.9577  165.1773 C.3     1  UNL1        0.0543
      8 C         139.3271  144.0324  164.5008 C.3     1  UNL1        0.1137
      9 O         139.9031  145.4085  164.3444 O.3     1  UNL1       -0.3844
     10 C         137.9529  143.7310  163.9806 C.3     1  UNL1        0.0464
     11 C         137.3769  142.3549  164.1369 C.3     1  UNL1        0.0714
     12 N         138.1751  141.2801  164.8135 N.3     1  UNL1       -0.2912
     13 H         139.2626  145.9774  163.8894 H       1  UNL1        0.2103
     14 H         138.2750  140.5199  164.1408 H       1  UNL1        0.1236
     15 C         142.6874  139.6390  168.5224 C.1     1  UNL1        0.0927
     16 N         142.7873  139.6085  170.0188 N.1     1  UNL1       -0.1942
     17 C         143.2858  138.6254  166.2063 C.3     1  UNL1        0.0616
     18 C         143.2416  138.8901  161.7143 C.ar    1  UNL1       -0.0000
     19 C         142.2027  138.0769  162.4279 C.ar    1  UNL1       -0.0003
     20 C         142.2175  137.9886  163.9253 C.ar    1  UNL1       -0.0042
     21 C         143.2711  138.7136  164.7090 C.ar    1  UNL1       -0.0194
     22 C         144.3099  139.5269  163.9953 C.ar    1  UNL1       -0.0042
     23 C         144.2952  139.6152  162.4980 C.ar    1  UNL1       -0.0003
     24 C         143.1974  139.1549  157.2223 C.ar    1  UNL1        0.0684
     25 C         142.6568  137.9348  157.9071 C.ar    1  UNL1        0.0103
     26 C         142.6715  137.8465  159.4044 C.ar    1  UNL1        0.0007
     27 C         143.2268  138.9784  160.2170 C.ar    1  UNL1        0.0000
     28 C         143.7674  140.1986  159.5322 C.ar    1  UNL1        0.0007
     29 C         143.7527  140.2868  158.0349 C.ar    1  UNL1        0.0103
     30 N         143.1679  139.3314  154.2277 N.1     1  UNL1       -0.1908
     31 C         143.1826  139.2432  155.7250 C.1     1  UNL1        0.1004
@<TRIPOS>BOND
     1    30    31    3
     2    31    24    1
     3    24    25   ar
     4    25    26   ar
     5    26    27   ar
     6    27    18    1
     7    18    19   ar
     8    19    20   ar
     9    20    21   ar
    10    21    17    1
    11     1    17    1
    12     1    15    1
    13    15    16    3
    14     1     2    1
    15     2     3   am
    16     3     4    2
    17     6     3    1
    18     6     7    1
    19     7     8    1
    20     8     9    1
    21     8    10    1
    22    10    11    1
    23    11    12    1
    24    21    22   ar
    25    22    23   ar
    26    27    28   ar
    27    28    29   ar
    28    29    24   ar
    29    23    18   ar
    30    12     6    1
    31     2     5    1
    32     9    13    1
    33    12    14    1
