@<TRIPOS>MOLECULE
*****
 50 54 0 0 0
SMALL
GASTEIGER

@<TRIPOS>ATOM
      1 N         142.8582  142.5545  159.9223 N.am    1  UNL1       -0.2935
      2 C         143.2731  143.0497  158.5686 C.2     1  UNL1        0.2639
      3 O         143.0010  144.4711  158.1742 O.2     1  UNL1       -0.2685
      4 H         143.0368  141.6216  160.1812 H       1  UNL1        0.1502
      5 C         143.9601  142.1235  157.6093 C.ar    1  UNL1        0.1356
      6 C         143.4961  140.7034  157.4754 C.ar    1  UNL1        0.0383
      7 C         144.1831  139.7772  156.5161 C.ar    1  UNL1        0.0510
      8 C         145.3340  140.2712  155.6907 C.ar    1  UNL1        0.0337
      9 C         145.7980  141.6913  155.8246 C.ar    1  UNL1        0.0826
     10 N         145.1110  142.6175  156.7839 N.ar    1  UNL1       -0.2407
     11 N         143.7191  138.3571  156.3822 N.pl3   1  UNL1       -0.3074
     12 C         142.5147  137.8867  157.1426 C.3     1  UNL1        0.0913
     13 C         142.0508  136.4665  157.0087 C.3     1  UNL1        0.0305
     14 C         142.7911  135.5168  156.1144 C.3     1  UNL1        0.0801
     15 C         143.9954  135.9872  155.3540 C.3     1  UNL1        0.0305
     16 C         144.4594  137.4073  155.4879 C.3     1  UNL1        0.0913
     17 C         142.3271  134.0967  155.9805 C.2     1  UNL1        0.2253
     18 O         141.0856  133.7838  155.1990 O.2     1  UNL1       -0.2749
     19 N         143.1046  132.9894  156.6282 N.am    1  UNL1       -0.2795
     20 C         142.7650  131.5291  156.5812 C.3     1  UNL1        0.0935
     21 C         143.8088  130.7852  157.3605 C.3     1  UNL1        0.0233
     22 C         144.7935  131.7858  157.8891 C.3     1  UNL1        0.0233
     23 C         144.3583  133.1480  157.4364 C.3     1  UNL1        0.0935
     24 C         146.9490  142.1853  154.9991 C.ar    1  UNL1        0.0177
     25 C         146.7098  143.1656  153.8894 C.ar    1  UNL1        0.0015
     26 C         147.8608  143.6595  153.0640 C.ar    1  UNL1        0.0000
     27 C         149.2509  143.1731  153.3484 C.ar    1  UNL1        0.0000
     28 C         149.4901  142.1927  154.4582 C.ar    1  UNL1        0.0000
     29 C         148.3391  141.6988  155.2835 C.ar    1  UNL1        0.0015
     30 C         142.1712  143.4807  160.8817 C.3     1  UNL1        0.1494
     31 C         140.7351  140.3526  166.8317 C.2     1  UNL1        0.4050
     32 O         139.6766  139.3158  166.5984 O.2     1  UNL1       -0.2262
     33 N         141.2340  141.1856  165.6883 N.am    1  UNL1       -0.2425
     34 C         142.2925  142.2224  165.9217 C.3     1  UNL1        0.1182
     35 C         142.7915  143.0554  164.7783 C.3     1  UNL1        0.1151
     36 N         142.2319  142.8516  163.4017 N.am    1  UNL1       -0.2747
     37 C         142.7308  143.6845  162.2583 C.2     1  UNL1        0.2436
     38 O         143.7893  144.7213  162.4916 O.2     1  UNL1       -0.2731
     39 C         141.1733  141.8147  163.1683 C.3     1  UNL1        0.1151
     40 C         140.6744  140.9818  164.3117 C.3     1  UNL1        0.1182
     41 O         141.2947  140.5565  168.2083 O.3     1  UNL1       -0.4345
     42 C         140.4664  140.2184  169.4123 C.3     1  UNL1        0.2101
     43 C         139.4524  141.1982  169.9242 C.3     1  UNL1        0.0475
     44 C         140.3894  143.5756  169.4556 C.3     1  UNL1        0.0001
     45 C         139.8935  142.5422  170.4231 C.3     1  UNL1        0.0038
     46 C         140.9245  144.2030  160.4642 C.3     1  UNL1        0.0349
     47 C         140.2967  145.2082  161.3837 C.3     1  UNL1        0.0439
     48 C         139.2333  144.7788  162.3506 C.2     1  UNL1        0.0504
     49 O         139.3856  145.0751  163.8132 O.co2   1  UNL1       -0.5492
     50 O         138.0178  144.0530  161.8550 O.co2   1  UNL1       -0.5492
@<TRIPOS>UNITY_ATOM_ATTR
49 1
charge -1
@<TRIPOS>BOND
     1    44    45    1
     2    45    43    1
     3    43    42    1
     4    42    41    1
     5    41    31    1
     6    31    32    2
     7    31    33   am
     8    33    34    1
     9    34    35    1
    10    35    36    1
    11    36    37   am
    12    37    38    2
    13    37    30    1
    14    30    46    1
    15    46    47    1
    16    47    48    1
    17    48    49   ar
    18    48    50   ar
    19    30     1    1
    20     1     2   am
    21     2     3    2
    22     2     5    1
    23     5     6   ar
    24     6     7   ar
    25     7    11    1
    26    11    12    1
    27    12    13    1
    28    13    14    1
    29    14    17    1
    30    17    18    2
    31    17    19   am
    32    19    20    1
    33    20    21    1
    34    21    22    1
    35    22    23    1
    36    14    15    1
    37    15    16    1
    38     7     8   ar
    39     8     9   ar
    40     9    24    1
    41    24    25   ar
    42    25    26   ar
    43    26    27   ar
    44    27    28   ar
    45    28    29   ar
    46     9    10   ar
    47    36    39    1
    48    39    40    1
    49    40    33    1
    50    10     5   ar
    51    16    11    1
    52    29    24   ar
    53    23    19    1
    54     1     4    1
@<TRIPOS>MOLECULE
*****
 50 54 0 0 0
SMALL
GASTEIGER

@<TRIPOS>ATOM
      1 N         142.9353  143.6165  159.6070 N.am    1  UNL1       -0.2935
      2 C         142.4189  142.3165  159.0657 C.2     1  UNL1        0.2639
      3 O         141.1721  141.7087  159.6367 O.2     1  UNL1       -0.2685
      4 H         143.7536  144.0154  159.2322 H       1  UNL1        0.1502
      5 C         143.1492  141.6241  157.9533 C.ar    1  UNL1        0.1356
      6 C         142.9198  140.1635  157.7003 C.ar    1  UNL1        0.0383
      7 C         143.6500  139.4712  156.5880 C.ar    1  UNL1        0.0510
      8 C         144.6098  140.2395  155.7286 C.ar    1  UNL1        0.0337
      9 C         144.8392  141.7001  155.9815 C.ar    1  UNL1        0.0826
     10 N         144.1089  142.3924  157.0939 N.ar    1  UNL1       -0.2407
     11 N         143.4206  138.0106  156.3351 N.pl3   1  UNL1       -0.3074
     12 C         144.3486  137.2505  155.4346 C.3     1  UNL1        0.0913
     13 C         144.1192  135.7899  155.1816 C.3     1  UNL1        0.0305
     14 C         142.9617  135.0894  155.8292 C.3     1  UNL1        0.0801
     15 C         142.0337  135.8494  156.7298 C.3     1  UNL1        0.0305
     16 C         142.2631  137.3100  156.9827 C.3     1  UNL1        0.0913
     17 C         142.7323  133.6288  155.5763 C.2     1  UNL1        0.2253
     18 O         141.7496  133.1941  154.5297 O.2     1  UNL1       -0.2749
     19 N         143.4855  132.6028  156.3699 N.am    1  UNL1       -0.2795
     20 C         143.3621  131.1145  156.2295 C.3     1  UNL1        0.0935
     21 C         144.2949  130.4768  157.2162 C.3     1  UNL1        0.0233
     22 C         144.9947  131.5710  157.9665 C.3     1  UNL1        0.0233
     23 C         144.4946  132.8849  157.4435 C.3     1  UNL1        0.0935
     24 C         145.7990  142.4684  155.1220 C.ar    1  UNL1        0.0177
     25 C         145.3069  143.6131  154.2868 C.ar    1  UNL1        0.0015
     26 C         146.2667  144.3813  153.4274 C.ar    1  UNL1        0.0000
     27 C         147.7185  144.0048  153.4032 C.ar    1  UNL1        0.0000
     28 C         148.2105  142.8602  154.2384 C.ar    1  UNL1        0.0000
     29 C         147.2508  142.0919  155.0978 C.ar    1  UNL1        0.0015
     30 C         142.2050  144.3088  160.7194 C.3     1  UNL1        0.1494
     31 C         139.6380  140.8384  166.0688 C.2     1  UNL1        0.4050
     32 O         138.3858  140.1322  165.6407 O.2     1  UNL1       -0.2262
     33 N         140.4019  141.6737  165.0846 N.am    1  UNL1       -0.2425
     34 C         141.6540  142.3799  165.5126 C.3     1  UNL1        0.1182
     35 C         142.4179  143.2152  164.5284 C.3     1  UNL1        0.1151
     36 N         141.9295  143.3443  163.1160 N.am    1  UNL1       -0.2747
     37 C         142.6934  144.1797  162.1318 C.2     1  UNL1        0.2436
     38 O         143.9455  144.8859  162.5598 O.2     1  UNL1       -0.2731
     39 C         140.6773  142.6382  162.6879 C.3     1  UNL1        0.1151
     40 C         139.9135  141.8028  163.6722 C.3     1  UNL1        0.1182
     41 O         140.1264  140.7092  167.4812 O.3     1  UNL1       -0.4345
     42 C         139.2638  140.0490  168.5156 C.3     1  UNL1        0.2101
     43 C         139.2377  140.5781  169.9191 C.3     1  UNL1        0.0475
     44 C         139.9168  143.0471  170.3581 C.3     1  UNL1        0.0001
     45 C         140.2573  141.5863  170.3595 C.3     1  UNL1        0.0038
     46 C         140.9863  145.1303  160.4194 C.3     1  UNL1        0.0349
     47 C         140.3660  145.0810  159.0545 C.3     1  UNL1        0.0439
     48 C         140.8909  145.9622  157.9599 C.2     1  UNL1        0.0504
     49 O         142.3698  146.1470  157.7900 O.co2   1  UNL1       -0.5492
     50 O         139.9369  146.6585  157.0352 O.co2   1  UNL1       -0.5492
@<TRIPOS>UNITY_ATOM_ATTR
49 1
charge -1
@<TRIPOS>BOND
     1    44    45    1
     2    45    43    1
     3    43    42    1
     4    42    41    1
     5    41    31    1
     6    31    32    2
     7    31    33   am
     8    33    34    1
     9    34    35    1
    10    35    36    1
    11    36    37   am
    12    37    38    2
    13    37    30    1
    14    30    46    1
    15    46    47    1
    16    47    48    1
    17    48    49   ar
    18    48    50   ar
    19    30     1    1
    20     1     2   am
    21     2     3    2
    22     2     5    1
    23     5     6   ar
    24     6     7   ar
    25     7    11    1
    26    11    12    1
    27    12    13    1
    28    13    14    1
    29    14    17    1
    30    17    18    2
    31    17    19   am
    32    19    20    1
    33    20    21    1
    34    21    22    1
    35    22    23    1
    36    14    15    1
    37    15    16    1
    38     7     8   ar
    39     8     9   ar
    40     9    24    1
    41    24    25   ar
    42    25    26   ar
    43    26    27   ar
    44    27    28   ar
    45    28    29   ar
    46     9    10   ar
    47    36    39    1
    48    39    40    1
    49    40    33    1
    50    10     5   ar
    51    16    11    1
    52    29    24   ar
    53    23    19    1
    54     1     4    1
@<TRIPOS>MOLECULE
*****
 50 54 0 0 0
SMALL
GASTEIGER

@<TRIPOS>ATOM
      1 N         141.2444  142.9042  158.0147 N.am    1  UNL1       -0.2935
      2 C         142.7420  142.9382  158.0925 C.2     1  UNL1        0.2639
      3 O         143.4240  143.9232  158.9951 O.2     1  UNL1       -0.2685
      4 H         140.7968  142.2578  157.4223 H       1  UNL1        0.1502
      5 C         143.5577  141.9872  157.2676 C.ar    1  UNL1        0.1356
      6 C         143.1620  140.5432  157.1773 C.ar    1  UNL1        0.0383
      7 C         143.9776  139.5922  156.3525 C.ar    1  UNL1        0.0510
      8 C         145.1888  140.0853  155.6179 C.ar    1  UNL1        0.0337
      9 C         145.5845  141.5293  155.7082 C.ar    1  UNL1        0.0826
     10 N         144.7689  142.4803  156.5330 N.ar    1  UNL1       -0.2407
     11 N         143.5819  138.1482  156.2622 N.pl3   1  UNL1       -0.3074
     12 C         144.4190  137.1893  155.4686 C.3     1  UNL1        0.0913
     13 C         144.0233  135.7453  155.3783 C.3     1  UNL1        0.0305
     14 C         142.7905  135.2601  156.0816 C.3     1  UNL1        0.0801
     15 C         141.9534  136.2189  156.8752 C.3     1  UNL1        0.0305
     16 C         142.3491  137.6629  156.9655 C.3     1  UNL1        0.0913
     17 C         142.3948  133.8160  155.9914 C.2     1  UNL1        0.2253
     18 O         141.1699  133.4207  155.2211 O.2     1  UNL1       -0.2749
     19 N         143.2241  132.7672  156.6713 N.am    1  UNL1       -0.2795
     20 C         142.9545  131.2916  156.6691 C.3     1  UNL1        0.0935
     21 C         144.0324  130.6223  157.4694 C.3     1  UNL1        0.0233
     22 C         144.9680  131.6843  157.9662 C.3     1  UNL1        0.0233
     23 C         144.4685  133.0099  157.4730 C.3     1  UNL1        0.0935
     24 C         146.7959  142.0224  154.9735 C.ar    1  UNL1        0.0177
     25 C         148.1579  141.5197  155.3505 C.ar    1  UNL1        0.0015
     26 C         149.3691  142.0127  154.6159 C.ar    1  UNL1        0.0000
     27 C         149.2184  143.0085  153.5043 C.ar    1  UNL1        0.0000
     28 C         147.8564  143.5113  153.1273 C.ar    1  UNL1        0.0000
     29 C         146.6451  143.0182  153.8619 C.ar    1  UNL1        0.0015
     30 C         140.4287  143.8552  158.8396 C.3     1  UNL1        0.1494
     31 C         141.3191  142.4103  165.5006 C.2     1  UNL1        0.4050
     32 O         142.7383  142.7099  165.8826 O.2     1  UNL1       -0.2262
     33 N         140.8572  142.6394  164.0920 N.am    1  UNL1       -0.2425
     34 C         139.4379  142.3399  163.7101 C.3     1  UNL1        0.1182
     35 C         138.9760  142.5689  162.3015 C.3     1  UNL1        0.1151
     36 N         139.9333  143.0975  161.2748 N.am    1  UNL1       -0.2747
     37 C         139.4714  143.3266  159.8662 C.2     1  UNL1        0.2436
     38 O         138.0522  143.0271  159.4843 O.2     1  UNL1       -0.2731
     39 C         141.3526  143.3971  161.6568 C.3     1  UNL1        0.1151
     40 C         141.8145  143.1680  163.0654 C.3     1  UNL1        0.1182
     41 O         140.3617  141.8817  166.5273 O.3     1  UNL1       -0.4345
     42 C         140.3691  140.4236  166.8792 C.3     1  UNL1        0.2101
     43 C         139.7034  139.4302  165.9736 C.3     1  UNL1        0.0475
     44 C         137.5956  138.3467  167.0383 C.3     1  UNL1        0.0001
     45 C         138.2142  139.2554  166.0177 C.3     1  UNL1        0.0038
     46 C         140.5705  145.3348  158.6378 C.3     1  UNL1        0.0349
     47 C         140.0140  145.9801  157.4032 C.3     1  UNL1        0.0439
     48 C         140.8907  146.1842  156.2034 C.2     1  UNL1        0.0504
     49 O         140.5079  147.1883  155.1568 O.co2   1  UNL1       -0.5492
     50 O         142.1504  145.3843  156.0502 O.co2   1  UNL1       -0.5492
@<TRIPOS>UNITY_ATOM_ATTR
49 1
charge -1
@<TRIPOS>BOND
     1    44    45    1
     2    45    43    1
     3    43    42    1
     4    42    41    1
     5    41    31    1
     6    31    32    2
     7    31    33   am
     8    33    34    1
     9    34    35    1
    10    35    36    1
    11    36    37   am
    12    37    38    2
    13    37    30    1
    14    30    46    1
    15    46    47    1
    16    47    48    1
    17    48    49   ar
    18    48    50   ar
    19    30     1    1
    20     1     2   am
    21     2     3    2
    22     2     5    1
    23     5     6   ar
    24     6     7   ar
    25     7    11    1
    26    11    12    1
    27    12    13    1
    28    13    14    1
    29    14    17    1
    30    17    18    2
    31    17    19   am
    32    19    20    1
    33    20    21    1
    34    21    22    1
    35    22    23    1
    36    14    15    1
    37    15    16    1
    38     7     8   ar
    39     8     9   ar
    40     9    24    1
    41    24    25   ar
    42    25    26   ar
    43    26    27   ar
    44    27    28   ar
    45    28    29   ar
    46     9    10   ar
    47    36    39    1
    48    39    40    1
    49    40    33    1
    50    10     5   ar
    51    16    11    1
    52    29    24   ar
    53    23    19    1
    54     1     4    1
@<TRIPOS>MOLECULE
*****
 50 54 0 0 0
SMALL
GASTEIGER

@<TRIPOS>ATOM
      1 N         139.9484  138.8306  159.9585 N.am    1  UNL1       -0.2935
      2 C         140.9194  139.6919  159.2067 C.2     1  UNL1        0.2639
      3 O         141.0245  141.1546  159.5218 O.2     1  UNL1       -0.2685
      4 H         139.8795  137.8705  159.7517 H       1  UNL1        0.1502
      5 C         141.7854  139.0904  158.1397 C.ar    1  UNL1        0.1356
      6 C         142.7546  139.9523  157.3861 C.ar    1  UNL1        0.0383
      7 C         143.6205  139.3509  156.3191 C.ar    1  UNL1        0.0510
      8 C         143.5173  137.8877  156.0058 C.ar    1  UNL1        0.0337
      9 C         142.5481  137.0258  156.7594 C.ar    1  UNL1        0.0826
     10 N         141.6822  137.6272  157.8263 N.ar    1  UNL1       -0.2407
     11 N         144.5897  140.2128  155.5655 N.pl3   1  UNL1       -0.3074
     12 C         145.0000  141.5437  156.1225 C.3     1  UNL1        0.0913
     13 C         145.9692  142.4055  155.3689 C.3     1  UNL1        0.0305
     14 C         146.5280  141.9365  154.0583 C.3     1  UNL1        0.0801
     15 C         146.1177  140.6055  153.5014 C.3     1  UNL1        0.0305
     16 C         145.1485  139.7437  154.2550 C.3     1  UNL1        0.0913
     17 C         147.4972  142.7983  153.3047 C.2     1  UNL1        0.2253
     18 O         146.9990  143.7426  152.2512 O.2     1  UNL1       -0.2749
     19 N         148.9645  142.7159  153.6046 N.am    1  UNL1       -0.2795
     20 C         150.0470  143.5110  152.9368 C.3     1  UNL1        0.0935
     21 C         151.3586  143.1103  153.5446 C.3     1  UNL1        0.0233
     22 C         151.0867  142.0675  154.5880 C.3     1  UNL1        0.0233
     23 C         149.6071  141.8237  154.6251 C.3     1  UNL1        0.0935
     24 C         142.4449  135.5625  156.4460 C.ar    1  UNL1        0.0177
     25 C         141.4785  135.0852  155.4029 C.ar    1  UNL1        0.0015
     26 C         141.3753  133.6220  155.0895 C.ar    1  UNL1        0.0000
     27 C         142.2386  132.6360  155.8193 C.ar    1  UNL1        0.0000
     28 C         143.2051  133.1133  156.8624 C.ar    1  UNL1        0.0000
     29 C         143.3082  134.5765  157.1757 C.ar    1  UNL1        0.0015
     30 C         139.0825  139.4320  161.0255 C.3     1  UNL1        0.1494
     31 C         142.9108  141.8076  166.2169 C.2     1  UNL1        0.4050
     32 O         143.7094  142.9842  165.7397 O.2     1  UNL1       -0.2262
     33 N         141.9854  141.0972  165.2741 N.am    1  UNL1       -0.2425
     34 C         141.1868  139.9206  165.7513 C.3     1  UNL1        0.1182
     35 C         140.2614  139.2101  164.8085 C.3     1  UNL1        0.1151
     36 N         140.1346  139.6763  163.3884 N.am    1  UNL1       -0.2747
     37 C         139.2093  138.9659  162.4456 C.2     1  UNL1        0.2436
     38 O         138.4106  137.7893  162.9228 O.2     1  UNL1       -0.2731
     39 C         140.9332  140.8529  162.9112 C.3     1  UNL1        0.1151
     40 C         141.8586  141.5634  163.8540 C.3     1  UNL1        0.1182
     41 O         143.0376  141.3415  167.6370 O.3     1  UNL1       -0.4345
     42 C         142.3177  142.0702  168.7327 C.3     1  UNL1        0.2101
     43 C         140.8881  141.7370  169.0418 C.3     1  UNL1        0.0475
     44 C         140.3774  144.1092  169.9703 C.3     1  UNL1        0.0001
     45 C         140.0829  142.6390  169.9296 C.3     1  UNL1        0.0038
     46 C         138.0898  140.4997  160.6724 C.3     1  UNL1        0.0349
     47 C         138.3997  141.9381  160.9640 C.3     1  UNL1        0.0439
     48 C         137.7630  142.6192  162.1390 C.2     1  UNL1        0.0504
     49 O         136.9679  141.8202  163.1287 O.co2   1  UNL1       -0.5492
     50 O         137.9214  144.0992  162.3244 O.co2   1  UNL1       -0.5492
@<TRIPOS>UNITY_ATOM_ATTR
49 1
charge -1
@<TRIPOS>BOND
     1    44    45    1
     2    45    43    1
     3    43    42    1
     4    42    41    1
     5    41    31    1
     6    31    32    2
     7    31    33   am
     8    33    34    1
     9    34    35    1
    10    35    36    1
    11    36    37   am
    12    37    38    2
    13    37    30    1
    14    30    46    1
    15    46    47    1
    16    47    48    1
    17    48    49   ar
    18    48    50   ar
    19    30     1    1
    20     1     2   am
    21     2     3    2
    22     2     5    1
    23     5     6   ar
    24     6     7   ar
    25     7    11    1
    26    11    12    1
    27    12    13    1
    28    13    14    1
    29    14    17    1
    30    17    18    2
    31    17    19   am
    32    19    20    1
    33    20    21    1
    34    21    22    1
    35    22    23    1
    36    14    15    1
    37    15    16    1
    38     7     8   ar
    39     8     9   ar
    40     9    24    1
    41    24    25   ar
    42    25    26   ar
    43    26    27   ar
    44    27    28   ar
    45    28    29   ar
    46     9    10   ar
    47    36    39    1
    48    39    40    1
    49    40    33    1
    50    10     5   ar
    51    16    11    1
    52    29    24   ar
    53    23    19    1
    54     1     4    1
@<TRIPOS>MOLECULE
*****
 50 54 0 0 0
SMALL
GASTEIGER

@<TRIPOS>ATOM
      1 N         140.9506  140.1430  159.5442 N.am    1  UNL1       -0.2935
      2 C         140.6364  139.2627  158.3711 C.2     1  UNL1        0.2639
      3 O         139.2146  138.8879  158.0742 O.2     1  UNL1       -0.2685
      4 H         141.8837  140.3890  159.7391 H       1  UNL1        0.1502
      5 C         141.7439  138.7573  157.4947 C.ar    1  UNL1        0.1356
      6 C         141.8428  137.2941  157.1798 C.ar    1  UNL1        0.0383
      7 C         142.9503  136.7886  156.3035 C.ar    1  UNL1        0.0510
      8 C         143.9589  137.7465  155.7421 C.ar    1  UNL1        0.0337
      9 C         143.8600  139.2097  156.0569 C.ar    1  UNL1        0.0826
     10 N         142.7525  139.7151  156.9333 N.ar    1  UNL1       -0.2407
     11 N         143.0491  135.3254  155.9886 N.pl3   1  UNL1       -0.3074
     12 C         143.4441  134.3527  157.0600 C.3     1  UNL1        0.0913
     13 C         143.5430  132.8895  156.7451 C.3     1  UNL1        0.0305
     14 C         143.2469  132.3989  155.3589 C.3     1  UNL1        0.0801
     15 C         142.8519  133.3716  154.2876 C.3     1  UNL1        0.0305
     16 C         142.7530  134.8348  154.6024 C.3     1  UNL1        0.0913
     17 C         143.3457  130.9357  155.0440 C.2     1  UNL1        0.2253
     18 O         144.6913  130.2882  154.9026 O.2     1  UNL1       -0.2749
     19 N         142.0990  130.1199  154.8706 N.am    1  UNL1       -0.2795
     20 C         142.0409  128.6545  154.5555 C.3     1  UNL1        0.0935
     21 C         140.5973  128.2552  154.4720 C.3     1  UNL1        0.0233
     22 C         139.7633  129.4739  154.7354 C.3     1  UNL1        0.0233
     23 C         140.6914  130.6263  154.9818 C.3     1  UNL1        0.0935
     24 C         144.8687  140.1675  155.4954 C.ar    1  UNL1        0.0177
     25 C         145.5802  141.1255  156.4042 C.ar    1  UNL1        0.0015
     26 C         146.5889  142.0832  155.8427 C.ar    1  UNL1        0.0000
     27 C         146.8859  142.0830  154.3724 C.ar    1  UNL1        0.0000
     28 C         146.1744  141.1250  153.4636 C.ar    1  UNL1        0.0000
     29 C         145.1658  140.1673  154.0251 C.ar    1  UNL1        0.0015
     30 C         139.8430  140.6484  160.4206 C.3     1  UNL1        0.1494
     31 C         141.3269  140.6608  167.1324 C.2     1  UNL1        0.4050
     32 O         142.3440  141.7282  167.4084 O.2     1  UNL1       -0.2262
     33 N         140.8267  140.4449  165.7348 N.am    1  UNL1       -0.2425
     34 C         139.8097  139.3775  165.4588 C.3     1  UNL1        0.1182
     35 C         139.3095  139.1616  164.0612 C.3     1  UNL1        0.1151
     36 N         139.8263  140.0130  162.9397 N.am    1  UNL1       -0.2747
     37 C         139.3261  139.7970  161.5421 C.2     1  UNL1        0.2436
     38 O         138.3091  138.7296  161.2661 O.2     1  UNL1       -0.2731
     39 C         140.8434  141.0803  163.2157 C.3     1  UNL1        0.1151
     40 C         141.3436  141.2963  164.6133 C.3     1  UNL1        0.1182
     41 O         140.8101  139.8094  168.2539 O.3     1  UNL1       -0.4345
     42 C         139.7918  140.3616  169.2069 C.3     1  UNL1        0.2101
     43 C         140.2327  141.1787  170.3851 C.3     1  UNL1        0.0475
     44 C         140.3660  143.6419  169.5699 C.3     1  UNL1        0.0001
     45 C         139.8064  142.6118  170.5056 C.3     1  UNL1        0.0038
     46 C         139.2524  142.0053  160.1754 C.3     1  UNL1        0.0349
     47 C         137.9718  142.3989  160.8501 C.3     1  UNL1        0.0439
     48 C         138.0069  143.2181  162.1061 C.2     1  UNL1        0.0504
     49 O         137.5346  142.6262  163.4010 O.co2   1  UNL1       -0.5492
     50 O         138.5143  144.6291  162.0674 O.co2   1  UNL1       -0.5492
@<TRIPOS>UNITY_ATOM_ATTR
49 1
charge -1
@<TRIPOS>BOND
     1    44    45    1
     2    45    43    1
     3    43    42    1
     4    42    41    1
     5    41    31    1
     6    31    32    2
     7    31    33   am
     8    33    34    1
     9    34    35    1
    10    35    36    1
    11    36    37   am
    12    37    38    2
    13    37    30    1
    14    30    46    1
    15    46    47    1
    16    47    48    1
    17    48    49   ar
    18    48    50   ar
    19    30     1    1
    20     1     2   am
    21     2     3    2
    22     2     5    1
    23     5     6   ar
    24     6     7   ar
    25     7    11    1
    26    11    12    1
    27    12    13    1
    28    13    14    1
    29    14    17    1
    30    17    18    2
    31    17    19   am
    32    19    20    1
    33    20    21    1
    34    21    22    1
    35    22    23    1
    36    14    15    1
    37    15    16    1
    38     7     8   ar
    39     8     9   ar
    40     9    24    1
    41    24    25   ar
    42    25    26   ar
    43    26    27   ar
    44    27    28   ar
    45    28    29   ar
    46     9    10   ar
    47    36    39    1
    48    39    40    1
    49    40    33    1
    50    10     5   ar
    51    16    11    1
    52    29    24   ar
    53    23    19    1
    54     1     4    1
@<TRIPOS>MOLECULE
*****
 50 54 0 0 0
SMALL
GASTEIGER

@<TRIPOS>ATOM
      1 N         140.2157  140.4870  159.9159 N.am    1  UNL1       -0.2935
      2 C         141.5892  141.0186  159.6319 C.2     1  UNL1        0.2639
      3 O         142.1994  142.0439  160.5410 O.2     1  UNL1       -0.2685
      4 H         139.8152  139.8141  159.3192 H       1  UNL1        0.1502
      5 C         142.3527  140.5249  158.4387 C.ar    1  UNL1        0.1356
      6 C         142.1175  139.1375  157.9194 C.ar    1  UNL1        0.0383
      7 C         142.8808  138.6437  156.7264 C.ar    1  UNL1        0.0510
      8 C         143.8795  139.5375  156.0526 C.ar    1  UNL1        0.0337
      9 C         144.1147  140.9249  156.5719 C.ar    1  UNL1        0.0826
     10 N         143.3513  141.4186  157.7650 N.ar    1  UNL1       -0.2407
     11 N         142.6456  137.2563  156.2070 N.pl3   1  UNL1       -0.3074
     12 C         143.8104  136.3843  155.8427 C.3     1  UNL1        0.0913
     13 C         143.5752  134.9969  155.3234 C.3     1  UNL1        0.0305
     14 C         142.1751  134.4814  155.1684 C.3     1  UNL1        0.0801
     15 C         141.0103  135.3534  155.5327 C.3     1  UNL1        0.0305
     16 C         141.2455  136.7409  156.0521 C.3     1  UNL1        0.0913
     17 C         141.9399  133.0940  154.6491 C.2     1  UNL1        0.2253
     18 O         141.2858  132.8937  153.3142 O.2     1  UNL1       -0.2749
     19 N         142.3587  131.9069  155.4647 N.am    1  UNL1       -0.2795
     20 C         142.1895  130.4675  155.0780 C.3     1  UNL1        0.0935
     21 C         142.7466  129.6216  156.1845 C.3     1  UNL1        0.0233
     22 C         143.2601  130.5383  157.2551 C.3     1  UNL1        0.0233
     23 C         143.0204  131.9506  156.8102 C.3     1  UNL1        0.0935
     24 C         145.1134  141.8186  155.8981 C.ar    1  UNL1        0.0177
     25 C         146.5167  141.9037  156.4211 C.ar    1  UNL1        0.0015
     26 C         147.5153  142.7973  155.7473 C.ar    1  UNL1        0.0000
     27 C         147.1106  143.6060  154.5505 C.ar    1  UNL1        0.0000
     28 C         145.7073  143.5210  154.0275 C.ar    1  UNL1        0.0000
     29 C         144.7087  142.6273  154.7013 C.ar    1  UNL1        0.0015
     30 C         139.4522  140.9807  161.1090 C.3     1  UNL1        0.1494
     31 C         142.6523  141.4584  167.1737 C.2     1  UNL1        0.4050
     32 O         143.5752  142.6405  167.1501 O.2     1  UNL1       -0.2262
     33 N         141.8277  141.1264  165.9655 N.am    1  UNL1       -0.2425
     34 C         140.9048  139.9442  165.9891 C.3     1  UNL1        0.1182
     35 C         140.0802  139.6123  164.7808 C.3     1  UNL1        0.1151
     36 N         140.1785  140.4625  163.5490 N.am    1  UNL1       -0.2747
     37 C         139.3539  140.1305  162.3408 C.2     1  UNL1        0.2436
     38 O         138.4310  138.9483  162.3644 O.2     1  UNL1       -0.2731
     39 C         141.1014  141.6447  163.5254 C.3     1  UNL1        0.1151
     40 C         141.9260  141.9766  164.7337 C.3     1  UNL1        0.1182
     41 O         142.5540  140.6082  168.4055 O.3     1  UNL1       -0.4345
     42 C         143.1032  141.1091  169.7084 C.3     1  UNL1        0.2101
     43 C         142.2769  142.0158  170.5716 C.3     1  UNL1        0.0475
     44 C         140.4616  143.6457  169.6783 C.3     1  UNL1        0.0001
     45 C         140.8485  142.2980  170.2111 C.3     1  UNL1        0.0038
     46 C         138.7871  142.3247  161.0702 C.3     1  UNL1        0.0349
     47 C         137.8464  142.7278  162.1669 C.3     1  UNL1        0.0439
     48 C         138.0260  144.0445  162.8627 C.2     1  UNL1        0.0504
     49 O         138.6186  145.2082  162.1246 O.co2   1  UNL1       -0.5492
     50 O         137.6130  144.1975  164.2965 O.co2   1  UNL1       -0.5492
@<TRIPOS>UNITY_ATOM_ATTR
49 1
charge -1
@<TRIPOS>BOND
     1    44    45    1
     2    45    43    1
     3    43    42    1
     4    42    41    1
     5    41    31    1
     6    31    32    2
     7    31    33   am
     8    33    34    1
     9    34    35    1
    10    35    36    1
    11    36    37   am
    12    37    38    2
    13    37    30    1
    14    30    46    1
    15    46    47    1
    16    47    48    1
    17    48    49   ar
    18    48    50   ar
    19    30     1    1
    20     1     2   am
    21     2     3    2
    22     2     5    1
    23     5     6   ar
    24     6     7   ar
    25     7    11    1
    26    11    12    1
    27    12    13    1
    28    13    14    1
    29    14    17    1
    30    17    18    2
    31    17    19   am
    32    19    20    1
    33    20    21    1
    34    21    22    1
    35    22    23    1
    36    14    15    1
    37    15    16    1
    38     7     8   ar
    39     8     9   ar
    40     9    24    1
    41    24    25   ar
    42    25    26   ar
    43    26    27   ar
    44    27    28   ar
    45    28    29   ar
    46     9    10   ar
    47    36    39    1
    48    39    40    1
    49    40    33    1
    50    10     5   ar
    51    16    11    1
    52    29    24   ar
    53    23    19    1
    54     1     4    1
@<TRIPOS>MOLECULE
*****
 50 54 0 0 0
SMALL
GASTEIGER

@<TRIPOS>ATOM
      1 N         141.2235  139.4377  162.0949 N.am    1  UNL1       -0.2935
      2 C         142.1038  138.9348  160.9894 C.2     1  UNL1        0.2639
      3 O         142.9736  137.7331  161.2111 O.2     1  UNL1       -0.2685
      4 H         140.6526  140.2264  161.9494 H       1  UNL1        0.1502
      5 C         142.1142  139.6337  159.6622 C.ar    1  UNL1        0.1356
      6 C         140.8234  139.9094  158.9496 C.ar    1  UNL1        0.0383
      7 C         140.8337  140.6082  157.6224 C.ar    1  UNL1        0.0510
      8 C         142.1349  141.0314  157.0078 C.ar    1  UNL1        0.0337
      9 C         143.4258  140.7557  157.7204 C.ar    1  UNL1        0.0826
     10 N         143.4154  140.0569  159.0476 N.ar    1  UNL1       -0.2407
     11 N         139.5429  140.8839  156.9098 N.pl3   1  UNL1       -0.3074
     12 C         139.0528  139.9386  155.8533 C.3     1  UNL1        0.0913
     13 C         137.7619  140.2143  155.1407 C.3     1  UNL1        0.0305
     14 C         136.9613  141.4352  155.4846 C.3     1  UNL1        0.0801
     15 C         137.4515  142.3804  156.5411 C.3     1  UNL1        0.0305
     16 C         138.7423  142.1048  157.2537 C.3     1  UNL1        0.0913
     17 C         135.6705  141.7109  154.7720 C.2     1  UNL1        0.2253
     18 O         135.6712  142.5035  153.4985 O.2     1  UNL1       -0.2749
     19 N         134.3789  141.1939  155.3328 N.am    1  UNL1       -0.2795
     20 C         133.0172  141.3891  154.7348 C.3     1  UNL1        0.0935
     21 C         132.0189  140.7068  155.6226 C.3     1  UNL1        0.0233
     22 C         132.7638  140.0900  156.7693 C.3     1  UNL1        0.0233
     23 C         134.2223  140.3910  156.5902 C.3     1  UNL1        0.0935
     24 C         144.7270  141.1789  157.1057 C.ar    1  UNL1        0.0177
     25 C         145.2226  140.5051  155.8606 C.ar    1  UNL1        0.0015
     26 C         146.5237  140.9284  155.2460 C.ar    1  UNL1        0.0000
     27 C         147.3294  142.0253  155.8765 C.ar    1  UNL1        0.0000
     28 C         146.8338  142.6991  157.1217 C.ar    1  UNL1        0.0000
     29 C         145.5326  142.2759  157.7363 C.ar    1  UNL1        0.0015
     30 C         141.2131  138.7388  163.4222 C.3     1  UNL1        0.1494
     31 C         139.6177  140.3145  169.9200 C.2     1  UNL1        0.4050
     32 O         138.1545  140.0688  170.1398 O.2     1  UNL1       -0.2262
     33 N         140.2295  140.0485  168.5765 N.am    1  UNL1       -0.2425
     34 C         141.6928  140.2943  168.3568 C.3     1  UNL1        0.1182
     35 C         142.3045  140.0283  167.0133 C.3     1  UNL1        0.1151
     36 N         141.4529  139.5165  165.8895 N.am    1  UNL1       -0.2747
     37 C         142.0646  139.2505  164.5460 C.2     1  UNL1        0.2436
     38 O         143.5279  139.4962  164.3262 O.2     1  UNL1       -0.2731
     39 C         139.9896  139.2708  166.1092 C.3     1  UNL1        0.1151
     40 C         139.3779  139.5368  167.4527 C.3     1  UNL1        0.1182
     41 O         140.4693  140.8263  171.0438 O.3     1  UNL1       -0.4345
     42 C         140.6153  142.3031  171.2618 C.3     1  UNL1        0.2101
     43 C         141.5274  143.1047  170.3809 C.3     1  UNL1        0.0475
     44 C         143.9628  142.4783  169.7279 C.3     1  UNL1        0.0001
     45 C         142.9997  143.1450  170.6649 C.3     1  UNL1        0.0038
     46 C         140.3510  137.5282  163.6256 C.3     1  UNL1        0.0349
     47 C         138.9657  137.4889  163.0515 C.3     1  UNL1        0.0439
     48 C         138.3144  138.7540  162.5769 C.2     1  UNL1        0.0504
     49 O         137.8632  139.7836  163.5701 O.co2   1  UNL1       -0.5492
     50 O         138.1143  138.9896  161.1091 O.co2   1  UNL1       -0.5492
@<TRIPOS>UNITY_ATOM_ATTR
49 1
charge -1
@<TRIPOS>BOND
     1    44    45    1
     2    45    43    1
     3    43    42    1
     4    42    41    1
     5    41    31    1
     6    31    32    2
     7    31    33   am
     8    33    34    1
     9    34    35    1
    10    35    36    1
    11    36    37   am
    12    37    38    2
    13    37    30    1
    14    30    46    1
    15    46    47    1
    16    47    48    1
    17    48    49   ar
    18    48    50   ar
    19    30     1    1
    20     1     2   am
    21     2     3    2
    22     2     5    1
    23     5     6   ar
    24     6     7   ar
    25     7    11    1
    26    11    12    1
    27    12    13    1
    28    13    14    1
    29    14    17    1
    30    17    18    2
    31    17    19   am
    32    19    20    1
    33    20    21    1
    34    21    22    1
    35    22    23    1
    36    14    15    1
    37    15    16    1
    38     7     8   ar
    39     8     9   ar
    40     9    24    1
    41    24    25   ar
    42    25    26   ar
    43    26    27   ar
    44    27    28   ar
    45    28    29   ar
    46     9    10   ar
    47    36    39    1
    48    39    40    1
    49    40    33    1
    50    10     5   ar
    51    16    11    1
    52    29    24   ar
    53    23    19    1
    54     1     4    1
@<TRIPOS>MOLECULE
*****
 50 54 0 0 0
SMALL
GASTEIGER

@<TRIPOS>ATOM
      1 N         140.0263  140.7552  157.9279 N.am    1  UNL1       -0.2935
      2 C         140.2332  139.2761  157.7894 C.2     1  UNL1        0.2639
      3 O         139.2116  138.3218  158.3333 O.2     1  UNL1       -0.2685
      4 H         140.6968  141.3816  157.5709 H       1  UNL1        0.1502
      5 C         141.4616  138.7511  157.1071 C.ar    1  UNL1        0.1356
      6 C         141.6086  137.2798  156.8549 C.ar    1  UNL1        0.0383
      7 C         142.8369  136.7548  156.1726 C.ar    1  UNL1        0.0510
      8 C         143.9182  137.7012  155.7425 C.ar    1  UNL1        0.0337
      9 C         143.7712  139.1725  155.9946 C.ar    1  UNL1        0.0826
     10 N         142.5429  139.6975  156.6769 N.ar    1  UNL1       -0.2407
     11 N         142.9839  135.2835  155.9205 N.pl3   1  UNL1       -0.3074
     12 C         142.7461  134.7306  154.5466 C.3     1  UNL1        0.0913
     13 C         142.8931  133.2592  154.2945 C.3     1  UNL1        0.0305
     14 C         143.2780  132.3408  155.4163 C.3     1  UNL1        0.0801
     15 C         143.5158  132.8938  156.7901 C.3     1  UNL1        0.0305
     16 C         143.3688  134.3651  157.0423 C.3     1  UNL1        0.0913
     17 C         143.4250  130.8695  155.1641 C.2     1  UNL1        0.2253
     18 O         144.7903  130.2509  155.1081 O.2     1  UNL1       -0.2749
     19 N         142.2067  130.0168  154.9680 N.am    1  UNL1       -0.2795
     20 C         142.1970  128.5394  154.7088 C.3     1  UNL1        0.0935
     21 C         140.7683  128.1012  154.5773 C.3     1  UNL1        0.0233
     22 C         139.8952  129.3078  154.7552 C.3     1  UNL1        0.0233
     23 C         140.7841  130.4917  154.9967 C.3     1  UNL1        0.0935
     24 C         144.8526  140.1189  155.5644 C.ar    1  UNL1        0.0177
     25 C         145.5222  141.0021  156.5752 C.ar    1  UNL1        0.0015
     26 C         146.6035  141.9484  156.1449 C.ar    1  UNL1        0.0000
     27 C         147.0153  142.0116  154.7040 C.ar    1  UNL1        0.0000
     28 C         146.3457  141.1284  153.6932 C.ar    1  UNL1        0.0000
     29 C         145.2644  140.1821  154.1234 C.ar    1  UNL1        0.0015
     30 C         138.7979  141.2802  158.6102 C.3     1  UNL1        0.1494
     31 C         138.7418  139.1915  165.1588 C.2     1  UNL1        0.4050
     32 O         138.5713  137.7018  165.1976 O.2     1  UNL1       -0.2262
     33 N         138.7872  139.9072  163.8413 N.am    1  UNL1       -0.2425
     34 C         138.9577  141.3969  163.8025 C.3     1  UNL1        0.1182
     35 C         139.0030  142.1126  162.4851 C.3     1  UNL1        0.1151
     36 N         138.8778  141.3386  161.2064 N.am    1  UNL1       -0.2747
     37 C         138.9231  142.0542  159.8889 C.2     1  UNL1        0.2436
     38 O         139.0936  143.5440  159.8501 O.2     1  UNL1       -0.2731
     39 C         138.7073  139.8488  161.2451 C.3     1  UNL1        0.1151
     40 C         138.6620  139.1331  162.5626 C.3     1  UNL1        0.1182
     41 O         138.8671  139.9656  166.4375 O.3     1  UNL1       -0.4345
     42 C         140.1736  139.9913  167.1738 C.3     1  UNL1        0.2101
     43 C         140.4015  140.9981  168.2622 C.3     1  UNL1        0.0475
     44 C         138.6472  140.2654  170.0329 C.3     1  UNL1        0.0001
     45 C         140.0507  140.6611  169.6811 C.3     1  UNL1        0.0038
     46 C         137.4443  141.0310  158.0138 C.3     1  UNL1        0.0349
     47 C         137.1858  141.3655  156.5745 C.3     1  UNL1        0.0439
     48 C         135.8320  141.1171  155.9783 C.2     1  UNL1        0.0504
     49 O         134.9359  140.0663  156.5639 O.co2   1  UNL1       -0.5492
     50 O         135.3742  141.9195  154.7966 O.co2   1  UNL1       -0.5492
@<TRIPOS>UNITY_ATOM_ATTR
49 1
charge -1
@<TRIPOS>BOND
     1    44    45    1
     2    45    43    1
     3    43    42    1
     4    42    41    1
     5    41    31    1
     6    31    32    2
     7    31    33   am
     8    33    34    1
     9    34    35    1
    10    35    36    1
    11    36    37   am
    12    37    38    2
    13    37    30    1
    14    30    46    1
    15    46    47    1
    16    47    48    1
    17    48    49   ar
    18    48    50   ar
    19    30     1    1
    20     1     2   am
    21     2     3    2
    22     2     5    1
    23     5     6   ar
    24     6     7   ar
    25     7    11    1
    26    11    12    1
    27    12    13    1
    28    13    14    1
    29    14    17    1
    30    17    18    2
    31    17    19   am
    32    19    20    1
    33    20    21    1
    34    21    22    1
    35    22    23    1
    36    14    15    1
    37    15    16    1
    38     7     8   ar
    39     8     9   ar
    40     9    24    1
    41    24    25   ar
    42    25    26   ar
    43    26    27   ar
    44    27    28   ar
    45    28    29   ar
    46     9    10   ar
    47    36    39    1
    48    39    40    1
    49    40    33    1
    50    10     5   ar
    51    16    11    1
    52    29    24   ar
    53    23    19    1
    54     1     4    1
@<TRIPOS>MOLECULE
*****
 50 54 0 0 0
SMALL
GASTEIGER

@<TRIPOS>ATOM
      1 N         140.6215  138.2609  155.3310 N.am    1  UNL1       -0.2935
      2 C         139.4010  138.9303  154.7722 C.2     1  UNL1        0.2639
      3 O         139.0426  138.7509  153.3267 O.2     1  UNL1       -0.2685
      4 H         140.8567  138.3787  156.2797 H       1  UNL1        0.1502
      5 C         138.5388  139.7792  155.6589 C.ar    1  UNL1        0.1356
      6 C         139.1675  140.6441  156.7109 C.ar    1  UNL1        0.0383
      7 C         138.3053  141.4930  157.5975 C.ar    1  UNL1        0.0510
      8 C         136.8146  141.4769  157.4322 C.ar    1  UNL1        0.0337
      9 C         136.1860  140.6119  156.3802 C.ar    1  UNL1        0.0826
     10 N         137.0481  139.7631  155.4936 N.ar    1  UNL1       -0.2407
     11 N         138.9340  142.3579  158.6495 N.pl3   1  UNL1       -0.3074
     12 C         138.5463  142.1899  160.0887 C.3     1  UNL1        0.0913
     13 C         139.1749  143.0549  161.1407 C.3     1  UNL1        0.0305
     14 C         140.1913  144.0878  160.7535 C.3     1  UNL1        0.0801
     15 C         140.5790  144.2559  159.3143 C.3     1  UNL1        0.0305
     16 C         139.9503  143.3909  158.2623 C.3     1  UNL1        0.0913
     17 C         140.8199  144.9528  161.8055 C.2     1  UNL1        0.2253
     18 O         140.2298  146.2944  162.1244 O.2     1  UNL1       -0.2749
     19 N         142.0387  144.4761  162.5385 N.am    1  UNL1       -0.2795
     20 C         142.7730  145.2266  163.6097 C.3     1  UNL1        0.0935
     21 C         143.9254  144.3796  164.0623 C.3     1  UNL1        0.0233
     22 C         143.9031  143.1055  163.2708 C.3     1  UNL1        0.0233
     23 C         142.7371  143.1652  162.3290 C.3     1  UNL1        0.0935
     24 C         134.6951  140.5958  156.2149 C.ar    1  UNL1        0.0177
     25 C         133.8451  139.7919  157.1536 C.ar    1  UNL1        0.0015
     26 C         132.3544  139.7758  156.9883 C.ar    1  UNL1        0.0000
     27 C         131.7137  140.5637  155.8843 C.ar    1  UNL1        0.0000
     28 C         132.5637  141.3676  154.9456 C.ar    1  UNL1        0.0000
     29 C         134.0544  141.3837  155.1110 C.ar    1  UNL1        0.0015
     30 C         141.4837  137.4121  154.4443 C.3     1  UNL1        0.1494
     31 C         143.9327  131.6100  157.1991 C.2     1  UNL1        0.4050
     32 O         144.9980  131.9523  158.1981 O.2     1  UNL1       -0.2262
     33 N         143.2298  132.7020  156.4484 N.am    1  UNL1       -0.2425
     34 C         142.1645  132.3597  155.4494 C.3     1  UNL1        0.1182
     35 C         141.4616  133.4517  154.6987 C.3     1  UNL1        0.1151
     36 N         141.8241  134.8859  154.9469 N.am    1  UNL1       -0.2747
     37 C         141.1212  135.9779  154.1961 C.2     1  UNL1        0.2436
     38 O         140.0559  135.6356  153.1972 O.2     1  UNL1       -0.2731
     39 C         142.8894  135.2281  155.9458 C.3     1  UNL1        0.1151
     40 C         143.5922  134.1362  156.6966 C.3     1  UNL1        0.1182
     41 O         143.5702  130.1758  156.9509 O.3     1  UNL1       -0.4345
     42 C         144.5540  129.0883  157.2662 C.3     1  UNL1        0.2101
     43 C         144.2930  128.1481  158.4055 C.3     1  UNL1        0.0475
     44 C         142.1981  127.6006  159.8413 C.3     1  UNL1        0.0001
     45 C         142.9495  127.4963  158.5473 C.3     1  UNL1        0.0038
     46 C         142.7083  137.9975  153.8059 C.3     1  UNL1        0.0349
     47 C         143.3817  139.1861  154.4254 C.3     1  UNL1        0.0439
     48 C         144.1494  139.0309  155.7046 C.2     1  UNL1        0.0504
     49 O         143.4486  138.5721  156.9490 O.co2   1  UNL1       -0.5492
     50 O         145.6179  139.3345  155.7396 O.co2   1  UNL1       -0.5492
@<TRIPOS>UNITY_ATOM_ATTR
49 1
charge -1
@<TRIPOS>BOND
     1    44    45    1
     2    45    43    1
     3    43    42    1
     4    42    41    1
     5    41    31    1
     6    31    32    2
     7    31    33   am
     8    33    34    1
     9    34    35    1
    10    35    36    1
    11    36    37   am
    12    37    38    2
    13    37    30    1
    14    30    46    1
    15    46    47    1
    16    47    48    1
    17    48    49   ar
    18    48    50   ar
    19    30     1    1
    20     1     2   am
    21     2     3    2
    22     2     5    1
    23     5     6   ar
    24     6     7   ar
    25     7    11    1
    26    11    12    1
    27    12    13    1
    28    13    14    1
    29    14    17    1
    30    17    18    2
    31    17    19   am
    32    19    20    1
    33    20    21    1
    34    21    22    1
    35    22    23    1
    36    14    15    1
    37    15    16    1
    38     7     8   ar
    39     8     9   ar
    40     9    24    1
    41    24    25   ar
    42    25    26   ar
    43    26    27   ar
    44    27    28   ar
    45    28    29   ar
    46     9    10   ar
    47    36    39    1
    48    39    40    1
    49    40    33    1
    50    10     5   ar
    51    16    11    1
    52    29    24   ar
    53    23    19    1
    54     1     4    1
