@<TRIPOS>MOLECULE
*****
 36 39 0 0 0
SMALL
GASTEIGER

@<TRIPOS>ATOM
      1 C         140.8352  143.9063  161.1539 C.ar    1  UNL1        0.0173
      2 C         141.8229  142.8390  161.5218 C.ar    1  UNL1        0.0016
      3 C         141.9956  142.4398  162.9573 C.ar    1  UNL1        0.0046
      4 C         141.1806  143.1078  164.0249 C.ar    1  UNL1        0.0537
      5 C         140.1930  144.1751  163.6569 C.ar    1  UNL1        0.0046
      6 C         140.0203  144.5743  162.2213 C.ar    1  UNL1        0.0016
      7 C         138.7374  142.5788  159.4696 C.3     1  UNL1        0.0326
      8 C         139.6136  143.6418  158.8762 C.ar    1  UNL1       -0.0044
      9 C         139.4409  144.0411  157.4407 C.ar    1  UNL1       -0.0041
     10 C         140.3172  145.1041  156.8473 C.ar    1  UNL1        0.0127
     11 C         141.3661  145.7679  157.6893 C.ar    1  UNL1        0.0959
     12 N         141.5387  145.3686  159.1248 N.ar    1  UNL1       -0.2444
     13 C         140.6625  144.3056  159.7183 C.ar    1  UNL1        0.0773
     14 C         140.1445  145.5034  155.4117 C.3     1  UNL1        0.1008
     15 N         139.8996  146.9402  155.0571 N.3     1  UNL1       -0.2665
     16 C         140.5538  147.5357  153.8457 C.3     1  UNL1        0.0899
     17 C         140.3089  148.9725  153.4911 C.3     1  UNL1        0.0896
     18 N         139.4097  149.8137  154.3479 N.3     1  UNL1       -0.2716
     19 C         138.7555  149.2181  155.5592 C.3     1  UNL1        0.0896
     20 C         139.0004  147.7813  155.9138 C.3     1  UNL1        0.0899
     21 C         139.1648  151.2504  153.9933 C.3     1  UNL1        0.0577
     22 C         139.6331  151.7875  152.6733 C.3     1  UNL1        0.0173
     23 C         138.4516  152.1501  154.9586 C.3     1  UNL1        0.0173
     24 C         141.3534  142.7085  165.4604 C.2     1  UNL1        0.2495
     25 O         140.3340  143.1196  166.4811 O.2     1  UNL1       -0.2698
     26 N         142.5455  141.8981  165.8753 N.am    1  UNL1       -0.2794
     27 H         143.2146  141.6283  165.2054 H       1  UNL1        0.1552
     28 C         142.7182  141.4988  167.3108 C.ar    1  UNL1        0.0636
     29 C         143.3700  142.4417  168.2783 C.ar    1  UNL1        0.0159
     30 C         143.5428  142.0424  169.7139 C.ar    1  UNL1        0.0014
     31 C         143.0637  140.7002  170.1818 C.ar    1  UNL1        0.0013
     32 C         142.4119  139.7573  169.2143 C.ar    1  UNL1        0.0153
     33 C         142.2391  140.1566  167.7788 C.ar    1  UNL1        0.0552
     34 N         141.5873  139.2137  166.8113 N.pl3   1  UNL1       -0.3560
     35 H         141.2729  138.3328  167.1184 H       1  UNL1        0.1424
     36 H         141.4739  139.4758  165.8691 H       1  UNL1        0.1424
@<TRIPOS>BOND
     1     7     8    1
     2     8     9   ar
     3     9    10   ar
     4    10    14    1
     5    14    15    1
     6    15    16    1
     7    16    17    1
     8    17    18    1
     9    18    21    1
    10    21    22    1
    11    21    23    1
    12    18    19    1
    13    19    20    1
    14    10    11   ar
    15    11    12   ar
    16    12    13   ar
    17    13     1    1
    18     1     2   ar
    19     2     3   ar
    20     3     4   ar
    21     4    24    1
    22    24    25    2
    23    24    26   am
    24    26    28    1
    25    28    29   ar
    26    29    30   ar
    27    30    31   ar
    28    31    32   ar
    29    32    33   ar
    30    33    34    1
    31     4     5   ar
    32     5     6   ar
    33    13     8   ar
    34     6     1   ar
    35    20    15    1
    36    33    28   ar
    37    26    27    1
    38    34    35    1
    39    34    36    1
@<TRIPOS>MOLECULE
*****
 36 39 0 0 0
SMALL
GASTEIGER

@<TRIPOS>ATOM
      1 C         140.8984  138.8612  161.9365 C.ar    1  UNL1        0.0173
      2 C         140.6761  137.7880  162.9607 C.ar    1  UNL1        0.0016
      3 C         140.5125  138.1533  164.4063 C.ar    1  UNL1        0.0046
      4 C         140.5712  139.5917  164.8278 C.ar    1  UNL1        0.0537
      5 C         140.7934  140.6648  163.8035 C.ar    1  UNL1        0.0046
      6 C         140.9570  140.2995  162.3579 C.ar    1  UNL1        0.0016
      7 C         143.6210  138.2249  160.8489 C.3     1  UNL1        0.0326
      8 C         142.4232  138.1777  159.9471 C.ar    1  UNL1       -0.0044
      9 C         142.5868  137.8124  158.5015 C.ar    1  UNL1       -0.0041
     10 C         141.3891  137.7652  157.5997 C.ar    1  UNL1        0.0127
     11 C         140.0278  138.0834  158.1434 C.ar    1  UNL1        0.0959
     12 N         139.8643  138.4487  159.5890 N.ar    1  UNL1       -0.2444
     13 C         141.0620  138.4958  160.4908 C.ar    1  UNL1        0.0773
     14 C         141.5527  137.3999  156.1540 C.3     1  UNL1        0.1008
     15 N         142.0249  136.0273  155.7761 N.3     1  UNL1       -0.2665
     16 C         141.1103  135.0968  155.0360 C.3     1  UNL1        0.0899
     17 C         141.5825  133.7241  154.6582 C.3     1  UNL1        0.0896
     18 N         142.9694  133.2820  155.0204 N.3     1  UNL1       -0.2716
     19 C         143.8840  134.2124  155.7604 C.3     1  UNL1        0.0896
     20 C         143.4117  135.5851  156.1383 C.3     1  UNL1        0.0899
     21 C         143.4417  131.9093  154.6425 C.3     1  UNL1        0.0577
     22 C         144.3616  131.1547  155.5560 C.3     1  UNL1        0.0173
     23 C         142.9941  131.2912  153.3512 C.3     1  UNL1        0.0173
     24 C         140.4076  139.9570  166.2733 C.2     1  UNL1        0.2495
     25 O         139.2126  139.4713  167.0390 O.2     1  UNL1       -0.2698
     26 N         141.4389  140.8079  166.9533 N.am    1  UNL1       -0.2794
     27 H         142.2231  141.1267  166.4508 H       1  UNL1        0.1552
     28 C         141.2753  141.1731  168.3989 C.ar    1  UNL1        0.0636
     29 C         140.4010  142.3288  168.7862 C.ar    1  UNL1        0.0159
     30 C         140.2374  142.6941  170.2318 C.ar    1  UNL1        0.0014
     31 C         140.9481  141.9036  171.2902 C.ar    1  UNL1        0.0013
     32 C         141.8224  140.7479  170.9029 C.ar    1  UNL1        0.0153
     33 C         141.9860  140.3827  169.4573 C.ar    1  UNL1        0.0552
     34 N         142.8603  139.2270  169.0700 N.pl3   1  UNL1       -0.3560
     35 H         143.3268  138.7082  169.7646 H       1  UNL1        0.1424
     36 H         142.9677  138.9873  168.1212 H       1  UNL1        0.1424
@<TRIPOS>BOND
     1     7     8    1
     2     8     9   ar
     3     9    10   ar
     4    10    14    1
     5    14    15    1
     6    15    16    1
     7    16    17    1
     8    17    18    1
     9    18    21    1
    10    21    22    1
    11    21    23    1
    12    18    19    1
    13    19    20    1
    14    10    11   ar
    15    11    12   ar
    16    12    13   ar
    17    13     1    1
    18     1     2   ar
    19     2     3   ar
    20     3     4   ar
    21     4    24    1
    22    24    25    2
    23    24    26   am
    24    26    28    1
    25    28    29   ar
    26    29    30   ar
    27    30    31   ar
    28    31    32   ar
    29    32    33   ar
    30    33    34    1
    31     4     5   ar
    32     5     6   ar
    33    13     8   ar
    34     6     1   ar
    35    20    15    1
    36    33    28   ar
    37    26    27    1
    38    34    35    1
    39    34    36    1
@<TRIPOS>MOLECULE
*****
 36 39 0 0 0
SMALL
GASTEIGER

@<TRIPOS>ATOM
      1 C         140.8960  139.2607  161.3397 C.ar    1  UNL1        0.0173
      2 C         140.1798  138.4744  162.3974 C.ar    1  UNL1        0.0016
      3 C         139.8673  139.1082  163.7205 C.ar    1  UNL1        0.0046
      4 C         140.2709  140.5284  163.9858 C.ar    1  UNL1        0.0537
      5 C         140.9871  141.3146  162.9281 C.ar    1  UNL1        0.0046
      6 C         141.2996  140.6807  161.6049 C.ar    1  UNL1        0.0016
      7 C         143.5863  138.0192  160.8693 C.3     1  UNL1        0.0326
      8 C         142.5537  138.0061  159.7814 C.ar    1  UNL1       -0.0044
      9 C         142.8662  137.3722  158.4583 C.ar    1  UNL1       -0.0041
     10 C         141.8335  137.3591  157.3704 C.ar    1  UNL1        0.0127
     11 C         140.4884  137.9798  157.6056 C.ar    1  UNL1        0.0959
     12 N         140.1759  138.6136  158.9286 N.ar    1  UNL1       -0.2444
     13 C         141.2086  138.6268  160.0165 C.ar    1  UNL1        0.0773
     14 C         142.1461  136.7252  156.0473 C.3     1  UNL1        0.1008
     15 N         142.1025  135.2329  155.9017 N.3     1  UNL1       -0.2665
     16 C         142.9205  134.3663  156.8128 C.3     1  UNL1        0.0899
     17 C         142.8769  132.8740  156.6672 C.3     1  UNL1        0.0896
     18 N         142.0155  132.2483  155.6105 N.3     1  UNL1       -0.2716
     19 C         141.1976  133.1150  154.6995 C.3     1  UNL1        0.0896
     20 C         141.2411  134.6072  154.8451 C.3     1  UNL1        0.0899
     21 C         141.9719  130.7561  155.4649 C.3     1  UNL1        0.0577
     22 C         140.7391  130.0904  154.9290 C.3     1  UNL1        0.0173
     23 C         143.1611  129.9294  155.8551 C.3     1  UNL1        0.0173
     24 C         139.9584  141.1622  165.3089 C.2     1  UNL1        0.2495
     25 O         138.8061  142.1147  165.4306 O.2     1  UNL1       -0.2698
     26 N         140.7981  140.8435  166.5103 N.am    1  UNL1       -0.2794
     27 H         141.5544  140.2183  166.4304 H       1  UNL1        0.1552
     28 C         140.4855  141.4773  167.8333 C.ar    1  UNL1        0.0636
     29 C         141.0871  142.8043  168.1900 C.ar    1  UNL1        0.0159
     30 C         140.7745  143.4381  169.5132 C.ar    1  UNL1        0.0014
     31 C         139.8604  142.7449  170.4795 C.ar    1  UNL1        0.0013
     32 C         139.2589  141.4179  170.1228 C.ar    1  UNL1        0.0153
     33 C         139.5714  140.7841  168.7998 C.ar    1  UNL1        0.0552
     34 N         138.9699  139.4571  168.4431 N.pl3   1  UNL1       -0.3560
     35 H         138.3699  139.0022  169.0773 H       1  UNL1        0.1424
     36 H         139.1750  139.0411  167.5747 H       1  UNL1        0.1424
@<TRIPOS>BOND
     1     7     8    1
     2     8     9   ar
     3     9    10   ar
     4    10    14    1
     5    14    15    1
     6    15    16    1
     7    16    17    1
     8    17    18    1
     9    18    21    1
    10    21    22    1
    11    21    23    1
    12    18    19    1
    13    19    20    1
    14    10    11   ar
    15    11    12   ar
    16    12    13   ar
    17    13     1    1
    18     1     2   ar
    19     2     3   ar
    20     3     4   ar
    21     4    24    1
    22    24    25    2
    23    24    26   am
    24    26    28    1
    25    28    29   ar
    26    29    30   ar
    27    30    31   ar
    28    31    32   ar
    29    32    33   ar
    30    33    34    1
    31     4     5   ar
    32     5     6   ar
    33    13     8   ar
    34     6     1   ar
    35    20    15    1
    36    33    28   ar
    37    26    27    1
    38    34    35    1
    39    34    36    1
@<TRIPOS>MOLECULE
*****
 36 39 0 0 0
SMALL
GASTEIGER

@<TRIPOS>ATOM
      1 C         142.9043  140.8628  159.7979 C.ar    1  UNL1        0.0173
      2 C         143.7849  142.0766  159.7629 C.ar    1  UNL1        0.0016
      3 C         144.7011  142.3052  158.5974 C.ar    1  UNL1        0.0046
      4 C         144.7367  141.3199  157.4669 C.ar    1  UNL1        0.0537
      5 C         143.8561  140.1061  157.5019 C.ar    1  UNL1        0.0046
      6 C         142.9399  139.8776  158.6674 C.ar    1  UNL1        0.0016
      7 C         143.8228  139.2090  162.1262 C.3     1  UNL1        0.0326
      8 C         142.4473  139.8074  162.1275 C.ar    1  UNL1       -0.0044
      9 C         141.5311  139.5789  163.2930 C.ar    1  UNL1       -0.0041
     10 C         140.1556  140.1774  163.2943 C.ar    1  UNL1        0.0127
     11 C         139.6964  141.0043  162.1301 C.ar    1  UNL1        0.0959
     12 N         140.6126  141.2328  160.9647 N.ar    1  UNL1       -0.2444
     13 C         141.9881  140.6343  160.9634 C.ar    1  UNL1        0.0773
     14 C         139.2394  139.9488  164.4598 C.3     1  UNL1        0.1008
     15 N         139.5520  140.5645  165.7915 N.3     1  UNL1       -0.2665
     16 C         139.3801  139.7624  167.0474 C.3     1  UNL1        0.0899
     17 C         139.6927  140.3780  168.3790 C.3     1  UNL1        0.0896
     18 N         140.1772  141.7957  168.4548 N.3     1  UNL1       -0.2716
     19 C         140.3491  142.5976  167.1989 C.3     1  UNL1        0.0896
     20 C         140.0365  141.9820  165.8672 C.3     1  UNL1        0.0899
     21 C         140.4898  142.4113  169.7864 C.3     1  UNL1        0.0577
     22 C         140.5087  143.9036  169.9369 C.3     1  UNL1        0.0173
     23 C         140.7835  141.5346  170.9676 C.3     1  UNL1        0.0173
     24 C         145.6529  141.5485  156.3014 C.2     1  UNL1        0.2495
     25 O         145.2506  141.0919  154.9304 O.2     1  UNL1       -0.2698
     26 N         146.9714  142.2336  156.5070 N.am    1  UNL1       -0.2794
     27 H         147.2354  142.5332  157.4069 H       1  UNL1        0.1552
     28 C         147.8876  142.4621  155.3416 C.ar    1  UNL1        0.0636
     29 C         149.1742  141.6980  155.2379 C.ar    1  UNL1        0.0159
     30 C         150.0904  141.9266  154.0723 C.ar    1  UNL1        0.0014
     31 C         149.7200  142.9193  153.0106 C.ar    1  UNL1        0.0013
     32 C         148.4334  143.6834  153.1143 C.ar    1  UNL1        0.0153
     33 C         147.5172  143.4548  154.2797 C.ar    1  UNL1        0.0552
     34 N         146.2306  144.2189  154.3834 N.pl3   1  UNL1       -0.3560
     35 H         145.9875  144.8705  153.6865 H       1  UNL1        0.1424
     36 H         145.6292  144.0689  155.1484 H       1  UNL1        0.1424
@<TRIPOS>BOND
     1     7     8    1
     2     8     9   ar
     3     9    10   ar
     4    10    14    1
     5    14    15    1
     6    15    16    1
     7    16    17    1
     8    17    18    1
     9    18    21    1
    10    21    22    1
    11    21    23    1
    12    18    19    1
    13    19    20    1
    14    10    11   ar
    15    11    12   ar
    16    12    13   ar
    17    13     1    1
    18     1     2   ar
    19     2     3   ar
    20     3     4   ar
    21     4    24    1
    22    24    25    2
    23    24    26   am
    24    26    28    1
    25    28    29   ar
    26    29    30   ar
    27    30    31   ar
    28    31    32   ar
    29    32    33   ar
    30    33    34    1
    31     4     5   ar
    32     5     6   ar
    33    13     8   ar
    34     6     1   ar
    35    20    15    1
    36    33    28   ar
    37    26    27    1
    38    34    35    1
    39    34    36    1
@<TRIPOS>MOLECULE
*****
 36 39 0 0 0
SMALL
GASTEIGER

@<TRIPOS>ATOM
      1 C         139.9884  143.1632  160.2784 C.ar    1  UNL1        0.0173
      2 C         139.3495  142.9140  158.9444 C.ar    1  UNL1        0.0016
      3 C         139.4943  143.9222  157.8433 C.ar    1  UNL1        0.0046
      4 C         140.2781  145.1798  158.0762 C.ar    1  UNL1        0.0537
      5 C         140.9171  145.4290  159.4103 C.ar    1  UNL1        0.0046
      6 C         140.7722  144.4207  160.5114 C.ar    1  UNL1        0.0016
      7 C         137.9688  143.5974  162.4539 C.3     1  UNL1        0.0326
      8 C         138.8337  142.3720  162.4672 C.ar    1  UNL1       -0.0044
      9 C         138.6889  141.3637  163.5682 C.ar    1  UNL1       -0.0041
     10 C         139.5539  140.1383  163.5816 C.ar    1  UNL1        0.0127
     11 C         140.5637  139.9212  162.4939 C.ar    1  UNL1        0.0959
     12 N         140.7085  140.9295  161.3929 N.ar    1  UNL1       -0.2444
     13 C         139.8435  142.1549  161.3795 C.ar    1  UNL1        0.0773
     14 C         139.4090  139.1299  164.6827 C.3     1  UNL1        0.1008
     15 N         139.9570  139.4257  166.0473 N.3     1  UNL1       -0.2665
     16 C         139.0222  139.7126  167.1849 C.3     1  UNL1        0.0899
     17 C         139.5701  140.0084  168.5495 C.3     1  UNL1        0.0896
     18 N         141.0529  140.0173  168.7766 N.3     1  UNL1       -0.2716
     19 C         141.9876  139.7304  167.6391 C.3     1  UNL1        0.0896
     20 C         141.4396  139.4346  166.2745 C.3     1  UNL1        0.0899
     21 C         141.6008  140.3131  170.1413 C.3     1  UNL1        0.0577
     22 C         140.7967  141.1257  171.1124 C.3     1  UNL1        0.0173
     23 C         142.9528  139.7962  170.5348 C.3     1  UNL1        0.0173
     24 C         140.4229  146.1880  156.9752 C.2     1  UNL1        0.2495
     25 O         141.7297  146.3261  156.2519 O.2     1  UNL1       -0.2698
     26 N         139.2610  147.0582  156.5974 N.am    1  UNL1       -0.2794
     27 H         138.4033  146.9676  157.0721 H       1  UNL1        0.1552
     28 C         139.4058  148.0664  155.4963 C.ar    1  UNL1        0.0636
     29 C         140.1244  147.6984  154.2321 C.ar    1  UNL1        0.0159
     30 C         140.2692  148.7068  153.1310 C.ar    1  UNL1        0.0014
     31 C         139.6955  150.0830  153.2941 C.ar    1  UNL1        0.0013
     32 C         138.9769  150.4510  154.5583 C.ar    1  UNL1        0.0153
     33 C         138.8321  149.4428  155.6594 C.ar    1  UNL1        0.0552
     34 N         138.1135  149.8108  156.9236 N.pl3   1  UNL1       -0.3560
     35 H         137.7369  150.7141  157.0307 H       1  UNL1        0.1424
     36 H         138.0184  149.1491  157.6463 H       1  UNL1        0.1424
@<TRIPOS>BOND
     1     7     8    1
     2     8     9   ar
     3     9    10   ar
     4    10    14    1
     5    14    15    1
     6    15    16    1
     7    16    17    1
     8    17    18    1
     9    18    21    1
    10    21    22    1
    11    21    23    1
    12    18    19    1
    13    19    20    1
    14    10    11   ar
    15    11    12   ar
    16    12    13   ar
    17    13     1    1
    18     1     2   ar
    19     2     3   ar
    20     3     4   ar
    21     4    24    1
    22    24    25    2
    23    24    26   am
    24    26    28    1
    25    28    29   ar
    26    29    30   ar
    27    30    31   ar
    28    31    32   ar
    29    32    33   ar
    30    33    34    1
    31     4     5   ar
    32     5     6   ar
    33    13     8   ar
    34     6     1   ar
    35    20    15    1
    36    33    28   ar
    37    26    27    1
    38    34    35    1
    39    34    36    1
@<TRIPOS>MOLECULE
*****
 36 39 0 0 0
SMALL
GASTEIGER

@<TRIPOS>ATOM
      1 C         138.9918  142.2979  159.1638 C.ar    1  UNL1        0.0173
      2 C         139.8779  143.5047  159.2560 C.ar    1  UNL1        0.0016
      3 C         139.9608  144.4639  158.1058 C.ar    1  UNL1        0.0046
      4 C         139.1576  144.2164  156.8633 C.ar    1  UNL1        0.0537
      5 C         138.2715  143.0096  156.7712 C.ar    1  UNL1        0.0046
      6 C         138.1886  142.0504  157.9214 C.ar    1  UNL1        0.0016
      7 C         140.9947  140.0784  159.4133 C.3     1  UNL1        0.0326
      8 C         139.9104  140.2290  160.4388 C.ar    1  UNL1       -0.0044
      9 C         139.8276  139.2698  161.5890 C.ar    1  UNL1       -0.0041
     10 C         138.7433  139.4203  162.6145 C.ar    1  UNL1        0.0127
     11 C         137.7418  140.5301  162.4898 C.ar    1  UNL1        0.0959
     12 N         137.8247  141.4892  161.3395 N.ar    1  UNL1       -0.2444
     13 C         138.9090  141.3387  160.3141 C.ar    1  UNL1        0.0773
     14 C         138.6604  138.4611  163.7648 C.3     1  UNL1        0.1008
     15 N         139.0805  138.8975  165.1370 N.3     1  UNL1       -0.2665
     16 C         140.5024  139.3006  165.3934 C.3     1  UNL1        0.0899
     17 C         140.9225  139.7371  166.7656 C.3     1  UNL1        0.0896
     18 N         139.9206  139.7704  167.8815 N.3     1  UNL1       -0.2716
     19 C         138.4987  139.3674  167.6252 C.3     1  UNL1        0.0896
     20 C         138.0787  138.9309  166.2529 C.3     1  UNL1        0.0899
     21 C         140.3406  140.2069  169.2538 C.3     1  UNL1        0.0577
     22 C         139.5040  141.1907  170.0168 C.3     1  UNL1        0.0173
     23 C         141.5973  139.6595  169.8630 C.3     1  UNL1        0.0173
     24 C         139.2404  145.1756  155.7131 C.2     1  UNL1        0.2495
     25 O         138.5094  144.8812  154.4369 O.2     1  UNL1       -0.2698
     26 N         140.0543  146.4293  155.8392 N.am    1  UNL1       -0.2794
     27 H         140.5340  146.6226  156.6769 H       1  UNL1        0.1552
     28 C         140.1371  147.3886  154.6890 C.ar    1  UNL1        0.0636
     29 C         140.8959  147.0116  153.4512 C.ar    1  UNL1        0.0159
     30 C         140.9788  147.9709  152.3010 C.ar    1  UNL1        0.0014
     31 C         140.3028  149.3071  152.3886 C.ar    1  UNL1        0.0013
     32 C         139.5441  149.6840  153.6264 C.ar    1  UNL1        0.0153
     33 C         139.4612  148.7248  154.7766 C.ar    1  UNL1        0.0552
     34 N         138.7024  149.1018  156.0144 N.pl3   1  UNL1       -0.3560
     35 H         138.2587  149.9788  156.0719 H       1  UNL1        0.1424
     36 H         138.6480  148.4722  156.7693 H       1  UNL1        0.1424
@<TRIPOS>BOND
     1     7     8    1
     2     8     9   ar
     3     9    10   ar
     4    10    14    1
     5    14    15    1
     6    15    16    1
     7    16    17    1
     8    17    18    1
     9    18    21    1
    10    21    22    1
    11    21    23    1
    12    18    19    1
    13    19    20    1
    14    10    11   ar
    15    11    12   ar
    16    12    13   ar
    17    13     1    1
    18     1     2   ar
    19     2     3   ar
    20     3     4   ar
    21     4    24    1
    22    24    25    2
    23    24    26   am
    24    26    28    1
    25    28    29   ar
    26    29    30   ar
    27    30    31   ar
    28    31    32   ar
    29    32    33   ar
    30    33    34    1
    31     4     5   ar
    32     5     6   ar
    33    13     8   ar
    34     6     1   ar
    35    20    15    1
    36    33    28   ar
    37    26    27    1
    38    34    35    1
    39    34    36    1
@<TRIPOS>MOLECULE
*****
 36 39 0 0 0
SMALL
GASTEIGER

@<TRIPOS>ATOM
      1 C         141.5180  138.8409  161.0555 C.ar    1  UNL1        0.0173
      2 C         141.0232  137.8203  162.0372 C.ar    1  UNL1        0.0016
      3 C         140.9244  138.1665  163.4933 C.ar    1  UNL1        0.0046
      4 C         141.3202  139.5333  163.9678 C.ar    1  UNL1        0.0537
      5 C         141.8149  140.5539  162.9862 C.ar    1  UNL1        0.0046
      6 C         141.9138  140.2076  161.5300 C.ar    1  UNL1        0.0016
      7 C         139.1506  139.2360  159.2556 C.3     1  UNL1        0.0326
      8 C         140.4332  138.6922  158.6994 C.ar    1  UNL1       -0.0044
      9 C         140.5321  138.3459  157.2433 C.ar    1  UNL1       -0.0041
     10 C         141.8146  137.8021  156.6871 C.ar    1  UNL1        0.0127
     11 C         142.9983  137.6045  157.5871 C.ar    1  UNL1        0.0959
     12 N         142.8994  137.9508  159.0432 N.ar    1  UNL1       -0.2444
     13 C         141.6168  138.4946  159.5993 C.ar    1  UNL1        0.0773
     14 C         141.9135  137.4558  155.2310 C.3     1  UNL1        0.1008
     15 N         141.8134  136.0251  154.7918 N.3     1  UNL1       -0.2665
     16 C         141.8850  135.6814  153.3334 C.3     1  UNL1        0.0899
     17 C         141.7849  134.2506  152.8943 C.3     1  UNL1        0.0896
     18 N         141.6133  133.1635  153.9135 N.3     1  UNL1       -0.2716
     19 C         141.5418  133.5072  155.3718 C.3     1  UNL1        0.0896
     20 C         141.6418  134.9380  155.8110 C.3     1  UNL1        0.0899
     21 C         141.5133  131.7327  153.4744 C.3     1  UNL1        0.0577
     22 C         142.6249  131.1122  152.6810 C.3     1  UNL1        0.0173
     23 C         140.3017  130.9224  153.8286 C.3     1  UNL1        0.0173
     24 C         141.2213  139.8795  165.4240 C.2     1  UNL1        0.2495
     25 O         142.1559  139.2450  166.4108 O.2     1  UNL1       -0.2698
     26 N         140.1879  140.8602  165.8932 N.am    1  UNL1       -0.2794
     27 H         139.5745  141.2766  165.2455 H       1  UNL1        0.1552
     28 C         140.0890  141.2064  167.3493 C.ar    1  UNL1        0.0636
     29 C         140.7600  142.4411  167.8739 C.ar    1  UNL1        0.0159
     30 C         140.6611  142.7873  169.3302 C.ar    1  UNL1        0.0014
     31 C         139.8912  141.8988  170.2617 C.ar    1  UNL1        0.0013
     32 C         139.2203  140.6640  169.7371 C.ar    1  UNL1        0.0153
     33 C         139.3191  140.3178  168.2810 C.ar    1  UNL1        0.0552
     34 N         138.6482  139.0831  167.7564 N.pl3   1  UNL1       -0.3560
     35 H         138.1429  138.4999  168.3678 H       1  UNL1        0.1424
     36 H         138.7131  138.8559  166.8006 H       1  UNL1        0.1424
@<TRIPOS>BOND
     1     7     8    1
     2     8     9   ar
     3     9    10   ar
     4    10    14    1
     5    14    15    1
     6    15    16    1
     7    16    17    1
     8    17    18    1
     9    18    21    1
    10    21    22    1
    11    21    23    1
    12    18    19    1
    13    19    20    1
    14    10    11   ar
    15    11    12   ar
    16    12    13   ar
    17    13     1    1
    18     1     2   ar
    19     2     3   ar
    20     3     4   ar
    21     4    24    1
    22    24    25    2
    23    24    26   am
    24    26    28    1
    25    28    29   ar
    26    29    30   ar
    27    30    31   ar
    28    31    32   ar
    29    32    33   ar
    30    33    34    1
    31     4     5   ar
    32     5     6   ar
    33    13     8   ar
    34     6     1   ar
    35    20    15    1
    36    33    28   ar
    37    26    27    1
    38    34    35    1
    39    34    36    1
@<TRIPOS>MOLECULE
*****
 36 39 0 0 0
SMALL
GASTEIGER

@<TRIPOS>ATOM
      1 C         142.9748  138.1328  157.6921 C.ar    1  UNL1        0.0173
      2 C         143.3536  139.4931  157.1862 C.ar    1  UNL1        0.0016
      3 C         143.6522  140.5976  158.1561 C.ar    1  UNL1        0.0046
      4 C         143.5720  140.3418  159.6321 C.ar    1  UNL1        0.0537
      5 C         143.1932  138.9815  160.1379 C.ar    1  UNL1        0.0046
      6 C         142.8946  137.8769  159.1679 C.ar    1  UNL1        0.0016
      7 C         140.1519  137.6373  156.8056 C.3     1  UNL1        0.0326
      8 C         141.2647  136.7805  156.2789 C.ar    1  UNL1       -0.0044
      9 C         140.9661  135.6760  155.3089 C.ar    1  UNL1       -0.0041
     10 C         142.0790  134.8192  154.7821 C.ar    1  UNL1        0.0127
     11 C         143.4904  135.0669  155.2254 C.ar    1  UNL1        0.0959
     12 N         143.7890  136.1714  156.1953 N.ar    1  UNL1       -0.2444
     13 C         142.6761  137.0282  156.7221 C.ar    1  UNL1        0.0773
     14 C         141.7804  133.7147  153.8121 C.3     1  UNL1        0.1008
     15 N         141.5808  132.3136  154.3092 N.3     1  UNL1       -0.2665
     16 C         140.3825  131.5254  153.8700 C.3     1  UNL1        0.0899
     17 C         140.1829  130.1243  154.3670 C.3     1  UNL1        0.0896
     18 N         141.1817  129.5113  155.3034 N.3     1  UNL1       -0.2716
     19 C         142.3800  130.2995  155.7426 C.3     1  UNL1        0.0896
     20 C         142.5796  131.7006  155.2455 C.3     1  UNL1        0.0899
     21 C         140.9822  128.1102  155.8005 C.3     1  UNL1        0.0577
     22 C         142.1672  127.2760  156.1879 C.3     1  UNL1        0.0173
     23 C         139.5978  127.5434  155.9101 C.3     1  UNL1        0.0173
     24 C         143.8707  141.4464  160.6020 C.2     1  UNL1        0.2495
     25 O         144.8865  142.4942  160.2557 O.2     1  UNL1       -0.2698
     26 N         143.1534  141.5030  161.9182 N.am    1  UNL1       -0.2794
     27 H         142.4867  140.8152  162.1454 H       1  UNL1        0.1552
     28 C         143.4521  142.6075  162.8881 C.ar    1  UNL1        0.0636
     29 C         144.1118  142.2967  164.1989 C.ar    1  UNL1        0.0159
     30 C         144.4104  143.4013  165.1688 C.ar    1  UNL1        0.0014
     31 C         144.0493  144.8167  164.8280 C.ar    1  UNL1        0.0013
     32 C         143.3896  145.1275  163.5172 C.ar    1  UNL1        0.0153
     33 C         143.0910  144.0230  162.5473 C.ar    1  UNL1        0.0552
     34 N         142.4313  144.3339  161.2365 N.pl3   1  UNL1       -0.3560
     35 H         142.1943  145.2629  161.0128 H       1  UNL1        0.1424
     36 H         142.2353  143.6089  160.5999 H       1  UNL1        0.1424
@<TRIPOS>BOND
     1     7     8    1
     2     8     9   ar
     3     9    10   ar
     4    10    14    1
     5    14    15    1
     6    15    16    1
     7    16    17    1
     8    17    18    1
     9    18    21    1
    10    21    22    1
    11    21    23    1
    12    18    19    1
    13    19    20    1
    14    10    11   ar
    15    11    12   ar
    16    12    13   ar
    17    13     1    1
    18     1     2   ar
    19     2     3   ar
    20     3     4   ar
    21     4    24    1
    22    24    25    2
    23    24    26   am
    24    26    28    1
    25    28    29   ar
    26    29    30   ar
    27    30    31   ar
    28    31    32   ar
    29    32    33   ar
    30    33    34    1
    31     4     5   ar
    32     5     6   ar
    33    13     8   ar
    34     6     1   ar
    35    20    15    1
    36    33    28   ar
    37    26    27    1
    38    34    35    1
    39    34    36    1
@<TRIPOS>MOLECULE
*****
 36 39 0 0 0
SMALL
GASTEIGER

@<TRIPOS>ATOM
      1 C         142.8553  139.2797  161.9974 C.ar    1  UNL1        0.0173
      2 C         144.0314  138.9871  162.8812 C.ar    1  UNL1        0.0016
      3 C         143.9031  139.1223  164.3696 C.ar    1  UNL1        0.0046
      4 C         142.5987  139.5503  164.9742 C.ar    1  UNL1        0.0537
      5 C         141.4226  139.8429  164.0903 C.ar    1  UNL1        0.0046
      6 C         141.5510  139.7076  162.6019 C.ar    1  UNL1        0.0016
      7 C         143.9962  141.5335  160.3791 C.3     1  UNL1        0.0326
      8 C         143.5541  140.2712  159.6999 C.ar    1  UNL1       -0.0044
      9 C         143.6824  140.1359  158.2116 C.ar    1  UNL1       -0.0041
     10 C         143.2403  138.8737  157.5323 C.ar    1  UNL1        0.0127
     11 C         142.6699  137.7468  158.3414 C.ar    1  UNL1        0.0959
     12 N         142.5415  137.8822  159.8298 N.ar    1  UNL1       -0.2444
     13 C         142.9837  139.1444  160.5090 C.ar    1  UNL1        0.0773
     14 C         143.3686  138.7384  156.0439 C.3     1  UNL1        0.1008
     15 N         143.0411  137.4346  155.3784 N.3     1  UNL1       -0.2665
     16 C         143.9107  136.2346  155.6109 C.3     1  UNL1        0.0899
     17 C         143.5832  134.9309  154.9454 C.3     1  UNL1        0.0896
     18 N         142.3862  134.8271  154.0472 N.3     1  UNL1       -0.2716
     19 C         141.5168  136.0271  153.8147 C.3     1  UNL1        0.0896
     20 C         141.8442  137.3309  154.4803 C.3     1  UNL1        0.0899
     21 C         142.0587  133.5234  153.3817 C.3     1  UNL1        0.0577
     22 C         142.3787  132.2291  154.0692 C.3     1  UNL1        0.0173
     23 C         141.4112  133.5138  152.0287 C.3     1  UNL1        0.0173
     24 C         142.4704  139.6855  166.4625 C.2     1  UNL1        0.2495
     25 O         143.2663  138.7930  167.3680 O.2     1  UNL1       -0.2698
     26 N         141.5463  140.7133  167.0453 N.am    1  UNL1       -0.2794
     27 H         141.0239  141.2991  166.4509 H       1  UNL1        0.1552
     28 C         141.4180  140.8486  168.5336 C.ar    1  UNL1        0.0636
     29 C         140.3689  140.0693  169.2699 C.ar    1  UNL1        0.0159
     30 C         140.2407  140.2046  170.7583 C.ar    1  UNL1        0.0014
     31 C         141.1615  141.1192  171.5104 C.ar    1  UNL1        0.0013
     32 C         142.2105  141.8985  170.7741 C.ar    1  UNL1        0.0153
     33 C         142.3388  141.7632  169.2858 C.ar    1  UNL1        0.0552
     34 N         143.3879  142.5425  168.5495 N.pl3   1  UNL1       -0.3560
     35 H         143.9923  143.1428  169.0431 H       1  UNL1        0.1424
     36 H         143.4721  142.4537  167.5726 H       1  UNL1        0.1424
@<TRIPOS>BOND
     1     7     8    1
     2     8     9   ar
     3     9    10   ar
     4    10    14    1
     5    14    15    1
     6    15    16    1
     7    16    17    1
     8    17    18    1
     9    18    21    1
    10    21    22    1
    11    21    23    1
    12    18    19    1
    13    19    20    1
    14    10    11   ar
    15    11    12   ar
    16    12    13   ar
    17    13     1    1
    18     1     2   ar
    19     2     3   ar
    20     3     4   ar
    21     4    24    1
    22    24    25    2
    23    24    26   am
    24    26    28    1
    25    28    29   ar
    26    29    30   ar
    27    30    31   ar
    28    31    32   ar
    29    32    33   ar
    30    33    34    1
    31     4     5   ar
    32     5     6   ar
    33    13     8   ar
    34     6     1   ar
    35    20    15    1
    36    33    28   ar
    37    26    27    1
    38    34    35    1
    39    34    36    1
