@<TRIPOS>MOLECULE
*****
 35 38 0 0 0
SMALL
GASTEIGER

@<TRIPOS>ATOM
      1 C         142.4046  137.8585  161.9076 C.ar    1  UNL1        0.0505
      2 C         140.9680  137.7464  162.3246 C.ar    1  UNL1        0.0159
      3 C         140.5342  138.2589  163.6658 C.ar    1  UNL1        0.0158
      4 C         141.5368  138.8836  164.5902 C.ar    1  UNL1        0.0480
      5 C         142.9733  138.9958  164.1733 C.ar    1  UNL1        0.0158
      6 C         143.4073  138.4832  162.8320 C.ar    1  UNL1        0.0159
      7 N         141.1029  139.3962  165.9315 N.pl3   1  UNL1       -0.3041
      8 C         142.0983  140.0531  166.8412 C.3     1  UNL1        0.1123
      9 C         141.6643  140.5656  168.1825 C.3     1  UNL1        0.1149
     10 N         140.2350  140.4212  168.6140 N.am    1  UNL1       -0.2749
     11 C         139.8011  140.9337  169.9553 C.2     1  UNL1        0.2421
     12 O         138.3718  140.7893  170.3869 O.2     1  UNL1       -0.2734
     13 C         139.2397  139.7643  167.7043 C.3     1  UNL1        0.1149
     14 C         139.6736  139.2518  166.3630 C.3     1  UNL1        0.1123
     15 C         140.7965  141.5906  170.8651 C.3     1  UNL1        0.1587
     16 N         141.3762  142.9259  170.5031 N.3     1  UNL1       -0.2626
     17 C         140.4831  144.0180  169.9933 C.3     1  UNL1        0.0900
     18 C         142.8489  143.1691  170.6510 C.3     1  UNL1        0.0900
     19 N         142.8385  137.3460  160.5663 N.pl3   1  UNL1       -0.2825
     20 H         143.1274  136.4101  160.4669 H       1  UNL1        0.1551
     21 C         142.6356  140.6486  158.3751 C.ar    1  UNL1        0.1030
     22 C         142.8193  140.0861  156.9968 C.ar    1  UNL1        0.0414
     23 C         143.0094  138.6102  156.8083 C.ar    1  UNL1        0.1034
     24 N         143.0158  137.6968  157.9982 N.ar    1  UNL1       -0.2120
     25 C         142.8321  138.2594  159.3765 C.ar    1  UNL1        0.2207
     26 N         142.6420  139.7353  159.5649 N.ar    1  UNL1       -0.2120
     27 C         140.8132  145.2989  160.0884 C.3     1  UNL1        0.0718
     28 C         141.6078  144.2620  159.3511 C.ar    1  UNL1        0.1208
     29 N         142.6981  144.5295  158.3561 N.ar    1  UNL1       -0.2293
     30 C         143.2157  143.2085  157.8695 C.ar    1  UNL1        0.1188
     31 C         142.4454  142.1246  158.5636 C.ar    1  UNL1        0.0981
     32 N         141.4517  142.7757  159.4793 N.ar    1  UNL1       -0.3155
     33 C         140.4736  142.0653  160.3673 C.3     1  UNL1        0.0868
     34 C         140.8030  141.8342  161.8122 C.3     1  UNL1        0.0245
     35 C         139.1659  141.5859  159.8102 C.3     1  UNL1        0.0245
@<TRIPOS>BOND
     1    27    28    1
     2    28    29   ar
     3    29    30   ar
     4    30    31   ar
     5    31    21    1
     6    21    22   ar
     7    22    23   ar
     8    23    24   ar
     9    24    25   ar
    10    25    19    1
    11    19     1    1
    12     1     2   ar
    13     2     3   ar
    14     3     4   ar
    15     4     7    1
    16     7     8    1
    17     8     9    1
    18     9    10    1
    19    10    11   am
    20    11    12    2
    21    11    15    1
    22    15    16    1
    23    16    17    1
    24    16    18    1
    25    10    13    1
    26    13    14    1
    27     4     5   ar
    28     5     6   ar
    29    25    26   ar
    30    31    32   ar
    31    32    33    1
    32    33    34    1
    33    33    35    1
    34    32    28   ar
    35    26    21   ar
    36     6     1   ar
    37    14     7    1
    38    19    20    1
@<TRIPOS>MOLECULE
*****
 35 38 0 0 0
SMALL
GASTEIGER

@<TRIPOS>ATOM
      1 C         138.4861  141.9515  160.5007 C.ar    1  UNL1        0.0505
      2 C         138.1071  140.5157  160.7127 C.ar    1  UNL1        0.0159
      3 C         138.7348  139.4426  159.8735 C.ar    1  UNL1        0.0158
      4 C         139.7414  139.8051  158.8222 C.ar    1  UNL1        0.0480
      5 C         140.1204  141.2409  158.6101 C.ar    1  UNL1        0.0158
      6 C         139.4927  142.3141  159.4493 C.ar    1  UNL1        0.0159
      7 N         140.3690  138.7319  157.9829 N.pl3   1  UNL1       -0.3041
      8 C         141.7691  138.2773  158.2709 C.3     1  UNL1        0.1123
      9 C         142.3967  137.2041  157.4316 C.3     1  UNL1        0.1149
     10 N         141.6242  136.5855  156.3044 N.am    1  UNL1       -0.2749
     11 C         142.2518  135.5123  155.4651 C.2     1  UNL1        0.2421
     12 O         141.4793  134.8937  154.3379 O.2     1  UNL1       -0.2734
     13 C         140.2241  137.0402  156.0165 C.3     1  UNL1        0.1149
     14 C         139.5965  138.1133  156.8557 C.3     1  UNL1        0.1123
     15 C         143.6519  135.0576  155.7531 C.3     1  UNL1        0.1587
     16 N         143.8862  133.7809  156.5048 N.3     1  UNL1       -0.2626
     17 C         144.1071  132.4997  155.7565 C.3     1  UNL1        0.0900
     18 C         143.8995  133.7853  158.0047 C.3     1  UNL1        0.0900
     19 N         137.8585  143.0247  161.3399 N.pl3   1  UNL1       -0.2825
     20 H         137.1068  143.5515  160.9839 H       1  UNL1        0.1551
     21 C         140.0662  142.7925  164.6296 C.ar    1  UNL1        0.1030
     22 C         139.4114  143.8365  165.4847 C.ar    1  UNL1        0.0414
     23 C         138.2389  144.6098  164.9583 C.ar    1  UNL1        0.1034
     24 N         137.7213  144.3392  163.5767 N.ar    1  UNL1       -0.2120
     25 C         138.3761  143.2953  162.7215 C.ar    1  UNL1        0.2207
     26 N         139.5486  142.5219  163.2480 N.ar    1  UNL1       -0.2120
     27 C         143.0050  138.9560  166.7569 C.3     1  UNL1        0.0718
     28 C         142.5896  140.2557  166.1338 C.ar    1  UNL1        0.1208
     29 N         143.4966  141.4024  165.7983 N.ar    1  UNL1       -0.2293
     30 C         142.6617  142.4922  165.1940 C.ar    1  UNL1        0.1188
     31 C         141.2387  142.0191  165.1560 C.ar    1  UNL1        0.0981
     32 N         141.1942  140.6369  165.7369 N.ar    1  UNL1       -0.3155
     33 C         139.9693  139.7853  165.8933 C.3     1  UNL1        0.0868
     34 C         139.4770  138.9606  164.7412 C.3     1  UNL1        0.0245
     35 C         139.2367  139.7584  167.2020 C.3     1  UNL1        0.0245
@<TRIPOS>BOND
     1    27    28    1
     2    28    29   ar
     3    29    30   ar
     4    30    31   ar
     5    31    21    1
     6    21    22   ar
     7    22    23   ar
     8    23    24   ar
     9    24    25   ar
    10    25    19    1
    11    19     1    1
    12     1     2   ar
    13     2     3   ar
    14     3     4   ar
    15     4     7    1
    16     7     8    1
    17     8     9    1
    18     9    10    1
    19    10    11   am
    20    11    12    2
    21    11    15    1
    22    15    16    1
    23    16    17    1
    24    16    18    1
    25    10    13    1
    26    13    14    1
    27     4     5   ar
    28     5     6   ar
    29    25    26   ar
    30    31    32   ar
    31    32    33    1
    32    33    34    1
    33    33    35    1
    34    32    28   ar
    35    26    21   ar
    36     6     1   ar
    37    14     7    1
    38    19    20    1
@<TRIPOS>MOLECULE
*****
 35 38 0 0 0
SMALL
GASTEIGER

@<TRIPOS>ATOM
      1 C         137.7481  139.9627  161.0039 C.ar    1  UNL1        0.0505
      2 C         138.1166  138.7178  161.7553 C.ar    1  UNL1        0.0159
      3 C         138.4740  138.7978  163.2099 C.ar    1  UNL1        0.0158
      4 C         138.4631  140.1227  163.9131 C.ar    1  UNL1        0.0480
      5 C         138.0946  141.3676  163.1618 C.ar    1  UNL1        0.0158
      6 C         137.7371  141.2876  161.7072 C.ar    1  UNL1        0.0159
      7 N         138.8206  140.2027  165.3678 N.pl3   1  UNL1       -0.3041
      8 C         139.8186  141.2179  165.8400 C.3     1  UNL1        0.1123
      9 C         140.1761  141.2979  167.2946 C.3     1  UNL1        0.1149
     10 N         139.5355  140.3626  168.2769 N.am    1  UNL1       -0.2749
     11 C         139.8930  140.4426  169.7315 C.2     1  UNL1        0.2421
     12 O         139.2524  139.5073  170.7138 O.2     1  UNL1       -0.2734
     13 C         138.5374  139.3474  167.8046 C.3     1  UNL1        0.1149
     14 C         138.1799  139.2674  166.3500 C.3     1  UNL1        0.1123
     15 C         140.8911  141.4578  170.2038 C.3     1  UNL1        0.1587
     16 N         142.3598  141.1823  170.0741 N.3     1  UNL1       -0.2626
     17 C         143.2350  142.1267  169.3046 C.3     1  UNL1        0.0900
     18 C         142.9534  139.9623  170.7140 C.3     1  UNL1        0.0900
     19 N         137.3906  139.8827  159.5494 N.pl3   1  UNL1       -0.2825
     20 H         136.5585  139.4364  159.2709 H       1  UNL1        0.1551
     21 C         138.8516  142.3846  156.8373 C.ar    1  UNL1        0.1030
     22 C         140.1218  141.6823  156.4588 C.ar    1  UNL1        0.0414
     23 C         140.4816  140.3802  157.1105 C.ar    1  UNL1        0.1034
     24 N         139.5712  139.7803  158.1407 N.ar    1  UNL1       -0.2120
     25 C         138.3010  140.4825  158.5192 C.ar    1  UNL1        0.2207
     26 N         137.9412  141.7847  157.8675 N.ar    1  UNL1       -0.2120
     27 C         138.9276  147.4571  155.3724 C.3     1  UNL1        0.0718
     28 C         138.5267  146.0184  155.5123 C.ar    1  UNL1        0.1208
     29 N         137.3492  145.3632  154.8532 N.ar    1  UNL1       -0.2293
     30 C         137.3276  143.9223  155.2693 C.ar    1  UNL1        0.1188
     31 C         138.4917  143.6869  156.1856 C.ar    1  UNL1        0.0981
     32 N         139.2328  144.9824  156.3357 N.ar    1  UNL1       -0.3155
     33 C         140.4637  145.2032  157.1639 C.3     1  UNL1        0.0868
     34 C         141.8085  145.2779  156.5037 C.3     1  UNL1        0.0245
     35 C         140.3499  145.3493  158.6525 C.3     1  UNL1        0.0245
@<TRIPOS>BOND
     1    27    28    1
     2    28    29   ar
     3    29    30   ar
     4    30    31   ar
     5    31    21    1
     6    21    22   ar
     7    22    23   ar
     8    23    24   ar
     9    24    25   ar
    10    25    19    1
    11    19     1    1
    12     1     2   ar
    13     2     3   ar
    14     3     4   ar
    15     4     7    1
    16     7     8    1
    17     8     9    1
    18     9    10    1
    19    10    11   am
    20    11    12    2
    21    11    15    1
    22    15    16    1
    23    16    17    1
    24    16    18    1
    25    10    13    1
    26    13    14    1
    27     4     5   ar
    28     5     6   ar
    29    25    26   ar
    30    31    32   ar
    31    32    33    1
    32    33    34    1
    33    33    35    1
    34    32    28   ar
    35    26    21   ar
    36     6     1   ar
    37    14     7    1
    38    19    20    1
@<TRIPOS>MOLECULE
*****
 35 38 0 0 0
SMALL
GASTEIGER

@<TRIPOS>ATOM
      1 C         138.7413  141.8934  160.1900 C.ar    1  UNL1        0.0505
      2 C         138.2264  140.4890  160.3028 C.ar    1  UNL1        0.0159
      3 C         138.8663  139.3895  159.5081 C.ar    1  UNL1        0.0158
      4 C         140.0210  139.6943  158.6005 C.ar    1  UNL1        0.0480
      5 C         140.5359  141.0985  158.4876 C.ar    1  UNL1        0.0158
      6 C         139.8960  142.1982  159.2823 C.ar    1  UNL1        0.0159
      7 N         140.6608  138.5946  157.8058 N.pl3   1  UNL1       -0.3041
      8 C         139.9061  137.9417  156.6859 C.3     1  UNL1        0.1123
      9 C         140.5460  136.8422  155.8913 C.3     1  UNL1        0.1149
     10 N         141.9405  136.3955  156.2165 N.am    1  UNL1       -0.2749
     11 C         142.5803  135.2959  155.4218 C.2     1  UNL1        0.2421
     12 O         143.9748  134.8492  155.7470 O.2     1  UNL1       -0.2734
     13 C         142.6952  137.0484  157.3364 C.3     1  UNL1        0.1149
     14 C         142.0553  138.1479  158.1310 C.3     1  UNL1        0.1123
     15 C         141.8256  134.6430  154.3019 C.3     1  UNL1        0.1587
     16 N         141.8319  133.1494  154.1639 N.3     1  UNL1       -0.2626
     17 C         142.1382  132.5200  152.8372 C.3     1  UNL1        0.0900
     18 C         141.5319  132.2851  155.3526 C.3     1  UNL1        0.0900
     19 N         138.1015  142.9929  160.9847 N.pl3   1  UNL1       -0.2825
     20 H         137.4294  143.5770  160.5646 H       1  UNL1        0.1551
     21 C         140.0436  142.6784  164.4313 C.ar    1  UNL1        0.1030
     22 C         139.2537  143.6220  165.2889 C.ar    1  UNL1        0.0414
     23 C         138.0797  144.3559  164.7118 C.ar    1  UNL1        0.1034
     24 N         137.6956  144.1462  163.2771 N.ar    1  UNL1       -0.2120
     25 C         138.4855  143.2026  162.4194 C.ar    1  UNL1        0.2207
     26 N         139.6595  142.4687  162.9965 N.ar    1  UNL1       -0.2120
     27 C         142.9756  139.0496  166.9045 C.3     1  UNL1        0.0718
     28 C         142.5653  140.2764  166.1451 C.ar    1  UNL1        0.1208
     29 N         143.4832  141.3535  165.6475 N.ar    1  UNL1       -0.2293
     30 C         142.6503  142.3843  164.9450 C.ar    1  UNL1        0.1188
     31 C         141.2176  141.9444  165.0083 C.ar    1  UNL1        0.0981
     32 N         141.1651  140.6417  165.7501 N.ar    1  UNL1       -0.3155
     33 C         139.9294  139.8441  166.0450 C.3     1  UNL1        0.0868
     34 C         139.3099  138.9971  164.9733 C.3     1  UNL1        0.0245
     35 C         139.3133  139.8937  167.4118 C.3     1  UNL1        0.0245
@<TRIPOS>BOND
     1    27    28    1
     2    28    29   ar
     3    29    30   ar
     4    30    31   ar
     5    31    21    1
     6    21    22   ar
     7    22    23   ar
     8    23    24   ar
     9    24    25   ar
    10    25    19    1
    11    19     1    1
    12     1     2   ar
    13     2     3   ar
    14     3     4   ar
    15     4     7    1
    16     7     8    1
    17     8     9    1
    18     9    10    1
    19    10    11   am
    20    11    12    2
    21    11    15    1
    22    15    16    1
    23    16    17    1
    24    16    18    1
    25    10    13    1
    26    13    14    1
    27     4     5   ar
    28     5     6   ar
    29    25    26   ar
    30    31    32   ar
    31    32    33    1
    32    33    34    1
    33    33    35    1
    34    32    28   ar
    35    26    21   ar
    36     6     1   ar
    37    14     7    1
    38    19    20    1
@<TRIPOS>MOLECULE
*****
 35 38 0 0 0
SMALL
GASTEIGER

@<TRIPOS>ATOM
      1 C         143.3669  139.8265  159.5029 C.ar    1  UNL1        0.0505
      2 C         143.2056  139.9311  158.0152 C.ar    1  UNL1        0.0159
      3 C         142.9217  138.7022  157.2034 C.ar    1  UNL1        0.0158
      4 C         142.7991  137.3686  157.8791 C.ar    1  UNL1        0.0480
      5 C         142.9605  137.2640  159.3667 C.ar    1  UNL1        0.0158
      6 C         143.2444  138.4929  160.1786 C.ar    1  UNL1        0.0159
      7 N         142.5152  136.1397  157.0672 N.pl3   1  UNL1       -0.3041
      8 C         143.1460  134.8313  157.4414 C.3     1  UNL1        0.1123
      9 C         142.8621  133.6024  156.6295 C.3     1  UNL1        0.1149
     10 N         141.9474  133.6820  155.4433 N.am    1  UNL1       -0.2749
     11 C         141.6635  132.4531  154.6314 C.2     1  UNL1        0.2421
     12 O         140.7488  132.5326  153.4452 O.2     1  UNL1       -0.2734
     13 C         141.3166  134.9904  155.0690 C.3     1  UNL1        0.1149
     14 C         141.6005  136.2193  155.8810 C.3     1  UNL1        0.1123
     15 C         142.2942  131.1446  155.0056 C.3     1  UNL1        0.1587
     16 N         143.6083  130.7458  154.4023 N.3     1  UNL1       -0.2626
     17 C         143.7454  130.6295  152.9130 C.3     1  UNL1        0.0900
     18 C         144.7854  130.4633  155.2881 C.3     1  UNL1        0.0900
     19 N         143.6508  141.0554  160.3148 N.pl3   1  UNL1       -0.2825
     20 H         143.7612  141.9258  159.8681 H       1  UNL1        0.1551
     21 C         142.6456  140.7625  164.1428 C.ar    1  UNL1        0.1030
     22 C         143.9978  140.7638  164.7919 C.ar    1  UNL1        0.0414
     23 C         145.2344  140.8623  163.9486 C.ar    1  UNL1        0.1034
     24 N         145.1187  140.9595  162.4563 N.ar    1  UNL1       -0.2120
     25 C         143.7665  140.9582  161.8071 C.ar    1  UNL1        0.2207
     26 N         142.5299  140.8597  162.6504 N.ar    1  UNL1       -0.2120
     27 C         138.1259  139.0195  166.2442 C.3     1  UNL1        0.0718
     28 C         139.3315  139.8628  165.9519 C.ar    1  UNL1        0.1208
     29 N         139.6804  141.1621  166.6154 N.ar    1  UNL1       -0.2293
     30 C         140.9643  141.6573  166.0184 C.ar    1  UNL1        0.1188
     31 C         141.4089  140.6640  164.9860 C.ar    1  UNL1        0.0981
     32 N         140.3997  139.5550  164.9449 N.ar    1  UNL1       -0.3155
     33 C         140.4500  138.3498  164.0534 C.3     1  UNL1        0.0868
     34 C         141.4171  137.2409  164.3449 C.3     1  UNL1        0.0245
     35 C         139.5329  138.2534  162.8702 C.3     1  UNL1        0.0245
@<TRIPOS>BOND
     1    27    28    1
     2    28    29   ar
     3    29    30   ar
     4    30    31   ar
     5    31    21    1
     6    21    22   ar
     7    22    23   ar
     8    23    24   ar
     9    24    25   ar
    10    25    19    1
    11    19     1    1
    12     1     2   ar
    13     2     3   ar
    14     3     4   ar
    15     4     7    1
    16     7     8    1
    17     8     9    1
    18     9    10    1
    19    10    11   am
    20    11    12    2
    21    11    15    1
    22    15    16    1
    23    16    17    1
    24    16    18    1
    25    10    13    1
    26    13    14    1
    27     4     5   ar
    28     5     6   ar
    29    25    26   ar
    30    31    32   ar
    31    32    33    1
    32    33    34    1
    33    33    35    1
    34    32    28   ar
    35    26    21   ar
    36     6     1   ar
    37    14     7    1
    38    19    20    1
@<TRIPOS>MOLECULE
*****
 35 38 0 0 0
SMALL
GASTEIGER

@<TRIPOS>ATOM
      1 C         137.7309  139.8848  161.3465 C.ar    1  UNL1        0.0505
      2 C         138.3237  138.7114  162.0688 C.ar    1  UNL1        0.0159
      3 C         138.6774  138.8257  163.5220 C.ar    1  UNL1        0.0158
      4 C         138.4382  140.1135  164.2530 C.ar    1  UNL1        0.0480
      5 C         137.8454  141.2869  163.5308 C.ar    1  UNL1        0.0158
      6 C         137.4918  141.1726  162.0776 C.ar    1  UNL1        0.0159
      7 N         138.7919  140.2278  165.7063 N.pl3   1  UNL1       -0.3041
      8 C         139.7029  141.3244  166.1724 C.3     1  UNL1        0.1123
      9 C         140.0565  141.4387  167.6257 C.3     1  UNL1        0.1149
     10 N         139.4991  140.4564  168.6127 N.am    1  UNL1       -0.2749
     11 C         139.8527  140.5707  170.0660 C.2     1  UNL1        0.2421
     12 O         139.2953  139.5884  171.0530 O.2     1  UNL1       -0.2734
     13 C         138.5880  139.3598  168.1465 C.3     1  UNL1        0.1149
     14 C         138.2344  139.2455  166.6933 C.3     1  UNL1        0.1123
     15 C         140.7638  141.6673  170.5321 C.3     1  UNL1        0.1587
     16 N         142.2486  141.5281  170.3709 N.3     1  UNL1       -0.2626
     17 C         142.8733  140.1651  170.3237 C.3     1  UNL1        0.0900
     18 C         143.1086  142.7517  170.2570 C.3     1  UNL1        0.0900
     19 N         137.3773  139.7705  159.8933 N.pl3   1  UNL1       -0.2825
     20 H         136.4898  139.4375  159.6274 H       1  UNL1        0.1551
     21 C         140.6862  141.1617  158.2006 C.ar    1  UNL1        0.1030
     22 C         140.3730  140.9492  156.7491 C.ar    1  UNL1        0.0414
     23 C         139.0613  140.3437  156.3458 C.ar    1  UNL1        0.1034
     24 N         138.0627  139.9508  157.3938 N.ar    1  UNL1       -0.2120
     25 C         138.3759  140.1634  158.8453 C.ar    1  UNL1        0.2207
     26 N         139.6876  140.7688  159.2486 N.ar    1  UNL1       -0.2120
     27 C         144.8750  142.6185  161.0664 C.3     1  UNL1        0.0718
     28 C         143.9233  142.4368  159.9212 C.ar    1  UNL1        0.1208
     29 N         144.1098  142.9610  158.5282 N.ar    1  UNL1       -0.2293
     30 C         142.9198  142.5472  157.7141 C.ar    1  UNL1        0.1188
     31 C         141.9980  141.7672  158.6040 C.ar    1  UNL1        0.0981
     32 N         142.6182  141.6990  159.9680 N.ar    1  UNL1       -0.3155
     33 C         142.0356  141.0133  161.1682 C.3     1  UNL1        0.0868
     34 C         141.2839  141.8078  162.1947 C.3     1  UNL1        0.0245
     35 C         142.2047  139.5330  161.3419 C.3     1  UNL1        0.0245
@<TRIPOS>BOND
     1    27    28    1
     2    28    29   ar
     3    29    30   ar
     4    30    31   ar
     5    31    21    1
     6    21    22   ar
     7    22    23   ar
     8    23    24   ar
     9    24    25   ar
    10    25    19    1
    11    19     1    1
    12     1     2   ar
    13     2     3   ar
    14     3     4   ar
    15     4     7    1
    16     7     8    1
    17     8     9    1
    18     9    10    1
    19    10    11   am
    20    11    12    2
    21    11    15    1
    22    15    16    1
    23    16    17    1
    24    16    18    1
    25    10    13    1
    26    13    14    1
    27     4     5   ar
    28     5     6   ar
    29    25    26   ar
    30    31    32   ar
    31    32    33    1
    32    33    34    1
    33    33    35    1
    34    32    28   ar
    35    26    21   ar
    36     6     1   ar
    37    14     7    1
    38    19    20    1
@<TRIPOS>MOLECULE
*****
 35 38 0 0 0
SMALL
GASTEIGER

@<TRIPOS>ATOM
      1 C         137.6412  139.8032  161.2956 C.ar    1  UNL1        0.0505
      2 C         137.5104  141.1192  162.0036 C.ar    1  UNL1        0.0159
      3 C         137.8912  141.2339  163.4498 C.ar    1  UNL1        0.0158
      4 C         138.4029  140.0327  164.1882 C.ar    1  UNL1        0.0480
      5 C         138.5337  138.7167  163.4804 C.ar    1  UNL1        0.0158
      6 C         138.1529  138.6020  162.0340 C.ar    1  UNL1        0.0159
      7 N         138.7837  140.1474  165.6346 N.pl3   1  UNL1       -0.3041
      8 C         139.8013  141.1623  166.0640 C.3     1  UNL1        0.1123
      9 C         140.1821  141.2771  167.5102 C.3     1  UNL1        0.1149
     10 N         139.5453  140.3769  168.5272 N.am    1  UNL1       -0.2749
     11 C         139.9262  140.4916  169.9735 C.2     1  UNL1        0.2421
     12 O         139.2893  139.5915  170.9905 O.2     1  UNL1       -0.2734
     13 C         138.5277  139.3620  168.0978 C.3     1  UNL1        0.1149
     14 C         138.1469  139.2473  166.6515 C.3     1  UNL1        0.1123
     15 C         140.9438  141.5065  170.4029 C.3     1  UNL1        0.1587
     16 N         142.4060  141.2250  170.2226 N.3     1  UNL1       -0.2626
     17 C         142.9561  139.8706  170.5589 C.3     1  UNL1        0.0900
     18 C         143.3182  142.2979  169.7061 C.3     1  UNL1        0.0900
     19 N         137.2604  139.6885  159.8493 N.pl3   1  UNL1       -0.2825
     20 H         136.4245  139.2347  159.5949 H       1  UNL1        0.1551
     21 C         140.5050  141.0466  158.0115 C.ar    1  UNL1        0.1030
     22 C         139.9382  141.4185  156.6734 C.ar    1  UNL1        0.0414
     23 C         138.4788  141.2137  156.3940 C.ar    1  UNL1        0.1034
     24 N         137.5862  140.6370  157.4527 N.ar    1  UNL1       -0.2120
     25 C         138.1530  140.2651  158.7907 C.ar    1  UNL1        0.2207
     26 N         139.6124  140.4700  159.0701 N.ar    1  UNL1       -0.2120
     27 C         145.0143  142.6955  160.2090 C.3     1  UNL1        0.0718
     28 C         144.0371  142.0093  159.3010 C.ar    1  UNL1        0.1208
     29 N         144.3835  141.1237  158.1408 N.ar    1  UNL1       -0.2293
     30 C         143.1025  140.6554  157.5166 C.ar    1  UNL1        0.1188
     31 C         141.9645  141.2514  158.2909 C.ar    1  UNL1        0.0981
     32 N         142.5421  142.0882  159.3937 N.ar    1  UNL1       -0.3155
     33 C         141.7617  142.8671  160.4107 C.3     1  UNL1        0.0868
     34 C         141.3067  142.2031  161.6764 C.3     1  UNL1        0.0245
     35 C         141.4364  144.3101  160.1620 C.3     1  UNL1        0.0245
@<TRIPOS>BOND
     1    27    28    1
     2    28    29   ar
     3    29    30   ar
     4    30    31   ar
     5    31    21    1
     6    21    22   ar
     7    22    23   ar
     8    23    24   ar
     9    24    25   ar
    10    25    19    1
    11    19     1    1
    12     1     2   ar
    13     2     3   ar
    14     3     4   ar
    15     4     7    1
    16     7     8    1
    17     8     9    1
    18     9    10    1
    19    10    11   am
    20    11    12    2
    21    11    15    1
    22    15    16    1
    23    16    17    1
    24    16    18    1
    25    10    13    1
    26    13    14    1
    27     4     5   ar
    28     5     6   ar
    29    25    26   ar
    30    31    32   ar
    31    32    33    1
    32    33    34    1
    33    33    35    1
    34    32    28   ar
    35    26    21   ar
    36     6     1   ar
    37    14     7    1
    38    19    20    1
@<TRIPOS>MOLECULE
*****
 35 38 0 0 0
SMALL
GASTEIGER

@<TRIPOS>ATOM
      1 C         138.5730  138.9687  163.6840 C.ar    1  UNL1        0.0505
      2 C         137.8512  140.0835  162.9865 C.ar    1  UNL1        0.0159
      3 C         137.9529  140.2264  161.4968 C.ar    1  UNL1        0.0158
      4 C         138.7762  139.2546  160.7045 C.ar    1  UNL1        0.0480
      5 C         139.4980  138.1399  161.4019 C.ar    1  UNL1        0.0158
      6 C         139.3964  137.9969  162.8917 C.ar    1  UNL1        0.0159
      7 N         138.8779  139.3976  159.2148 N.pl3   1  UNL1       -0.3041
      8 C         139.6813  138.4115  158.4197 C.3     1  UNL1        0.1123
      9 C         139.7829  138.5545  156.9301 C.3     1  UNL1        0.1149
     10 N         139.0811  139.6837  156.2354 N.am    1  UNL1       -0.2749
     11 C         139.1827  139.8267  154.7457 C.2     1  UNL1        0.2421
     12 O         138.4809  140.9558  154.0510 O.2     1  UNL1       -0.2734
     13 C         138.2777  140.6698  157.0304 C.3     1  UNL1        0.1149
     14 C         138.1761  140.5268  158.5201 C.3     1  UNL1        0.1123
     15 C         139.9861  138.8405  153.9506 C.3     1  UNL1        0.1587
     16 N         139.3303  137.6084  153.4014 N.3     1  UNL1       -0.2626
     17 C         137.8560  137.3993  153.5824 C.3     1  UNL1        0.0900
     18 C         140.1488  136.5853  152.6711 C.3     1  UNL1        0.0900
     19 N         138.4713  138.8257  165.1736 N.pl3   1  UNL1       -0.2825
     20 H         137.8723  138.1486  165.5634 H       1  UNL1        0.1551
     21 C         141.1465  141.4970  166.3809 C.ar    1  UNL1        0.1030
     22 C         140.9040  141.4921  167.8611 C.ar    1  UNL1        0.0414
     23 C         139.8506  140.5984  168.4455 C.ar    1  UNL1        0.1034
     24 N         139.0397  139.7096  167.5497 N.ar    1  UNL1       -0.2120
     25 C         139.2822  139.7145  166.0695 C.ar    1  UNL1        0.2207
     26 N         140.3356  140.6082  165.4850 N.ar    1  UNL1       -0.2120
     27 C         143.5707  145.1182  163.3990 C.3     1  UNL1        0.0718
     28 C         143.3143  144.0552  164.4258 C.ar    1  UNL1        0.1208
     29 N         144.3279  143.4768  165.3683 N.ar    1  UNL1       -0.2293
     30 C         143.6392  142.4481  166.2153 C.ar    1  UNL1        0.1188
     31 C         142.2000  142.3907  165.7964 C.ar    1  UNL1        0.0981
     32 N         141.9992  143.3840  164.6904 N.ar    1  UNL1       -0.3155
     33 C         140.7097  143.6579  163.9747 C.3     1  UNL1        0.0868
     34 C         139.7116  144.6092  164.5650 C.3     1  UNL1        0.0245
     35 C         140.4185  142.9803  162.6684 C.3     1  UNL1        0.0245
@<TRIPOS>BOND
     1    27    28    1
     2    28    29   ar
     3    29    30   ar
     4    30    31   ar
     5    31    21    1
     6    21    22   ar
     7    22    23   ar
     8    23    24   ar
     9    24    25   ar
    10    25    19    1
    11    19     1    1
    12     1     2   ar
    13     2     3   ar
    14     3     4   ar
    15     4     7    1
    16     7     8    1
    17     8     9    1
    18     9    10    1
    19    10    11   am
    20    11    12    2
    21    11    15    1
    22    15    16    1
    23    16    17    1
    24    16    18    1
    25    10    13    1
    26    13    14    1
    27     4     5   ar
    28     5     6   ar
    29    25    26   ar
    30    31    32   ar
    31    32    33    1
    32    33    34    1
    33    33    35    1
    34    32    28   ar
    35    26    21   ar
    36     6     1   ar
    37    14     7    1
    38    19    20    1
@<TRIPOS>MOLECULE
*****
 35 38 0 0 0
SMALL
GASTEIGER

@<TRIPOS>ATOM
      1 C         142.9945  141.1018  161.0951 C.ar    1  UNL1        0.0505
      2 C         142.3995  140.5417  159.8372 C.ar    1  UNL1        0.0159
      3 C         141.7372  141.4557  158.8493 C.ar    1  UNL1        0.0158
      4 C         141.6699  142.9296  159.1192 C.ar    1  UNL1        0.0480
      5 C         142.2649  143.4897  160.3770 C.ar    1  UNL1        0.0158
      6 C         142.9273  142.5758  161.3650 C.ar    1  UNL1        0.0159
      7 N         141.0075  143.8436  158.1312 N.pl3   1  UNL1       -0.3041
      8 C         141.7023  145.0959  157.6852 C.3     1  UNL1        0.1123
      9 C         141.0399  146.0097  156.6972 C.3     1  UNL1        0.1149
     10 N         139.6829  145.6713  156.1552 N.am    1  UNL1       -0.2749
     11 C         139.0205  146.5852  155.1672 C.2     1  UNL1        0.2421
     12 O         137.6634  146.2467  154.6252 O.2     1  UNL1       -0.2734
     13 C         138.9881  144.4189  156.6012 C.3     1  UNL1        0.1149
     14 C         139.6505  143.5051  157.5892 C.3     1  UNL1        0.1123
     15 C         139.7153  147.8375  154.7212 C.3     1  UNL1        0.1587
     16 N         139.2131  149.1760  155.1752 N.3     1  UNL1       -0.2626
     17 C         139.4730  150.3965  154.3427 C.3     1  UNL1        0.0900
     18 C         138.4511  149.2942  156.4618 C.3     1  UNL1        0.0900
     19 N         143.6568  140.1879  162.0831 N.pl3   1  UNL1       -0.2825
     20 H         144.6391  140.1494  162.1364 H       1  UNL1        0.1551
     21 C         141.7051  138.9255  165.2997 C.ar    1  UNL1        0.1030
     22 C         141.1539  137.6217  164.8034 C.ar    1  UNL1        0.0414
     23 C         141.4370  137.1734  163.4002 C.ar    1  UNL1        0.1034
     24 N         142.2713  138.0287  162.4935 N.ar    1  UNL1       -0.2120
     25 C         142.8225  139.3325  162.9898 C.ar    1  UNL1        0.2207
     26 N         142.5394  139.7808  164.3929 N.ar    1  UNL1       -0.2120
     27 C         139.1625  140.4838  169.6572 C.3     1  UNL1        0.0718
     28 C         140.2533  140.0902  168.7058 C.ar    1  UNL1        0.1208
     29 N         141.7194  140.0376  169.0184 N.ar    1  UNL1       -0.2293
     30 C         142.4417  139.5949  167.7805 C.ar    1  UNL1        0.1188
     31 C         141.4219  139.3739  166.7029 C.ar    1  UNL1        0.0981
     32 N         140.0694  139.6800  167.2747 N.ar    1  UNL1       -0.3155
     33 C         138.7625  139.5914  166.5439 C.3     1  UNL1        0.0868
     34 C         138.4636  140.5430  165.4237 C.3     1  UNL1        0.0245
     35 C         137.7545  138.5510  166.9333 C.3     1  UNL1        0.0245
@<TRIPOS>BOND
     1    27    28    1
     2    28    29   ar
     3    29    30   ar
     4    30    31   ar
     5    31    21    1
     6    21    22   ar
     7    22    23   ar
     8    23    24   ar
     9    24    25   ar
    10    25    19    1
    11    19     1    1
    12     1     2   ar
    13     2     3   ar
    14     3     4   ar
    15     4     7    1
    16     7     8    1
    17     8     9    1
    18     9    10    1
    19    10    11   am
    20    11    12    2
    21    11    15    1
    22    15    16    1
    23    16    17    1
    24    16    18    1
    25    10    13    1
    26    13    14    1
    27     4     5   ar
    28     5     6   ar
    29    25    26   ar
    30    31    32   ar
    31    32    33    1
    32    33    34    1
    33    33    35    1
    34    32    28   ar
    35    26    21   ar
    36     6     1   ar
    37    14     7    1
    38    19    20    1
