@<TRIPOS>MOLECULE
*****
 44 50 0 0 0
SMALL
GASTEIGER

@<TRIPOS>ATOM
      1 C         140.8625  141.3152  159.7555 C.3     1  UNL1        0.1205
      2 N         141.1830  140.2276  158.7735 N.3     1  UNL1       -0.2835
      3 C         142.4647  139.4584  158.8981 C.3     1  UNL1        0.1165
      4 C         143.4259  139.7768  160.0048 C.3     1  UNL1        0.0511
      5 C         143.1055  140.8644  160.9868 C.2     1  UNL1       -0.0038
      6 C         141.8237  141.6336  160.8622 C.2     1  UNL1        0.0753
      7 N         141.7795  142.6433  161.9706 N.2     1  UNL1       -0.2520
      8 C         143.0339  142.4981  162.7803 C.2     1  UNL1        0.0627
      9 C         143.5357  143.2250  163.9926 C.3     1  UNL1        0.0717
     10 C         144.8571  142.8524  164.5969 C.2     1  UNL1       -0.0198
     11 C         145.6766  141.7530  163.9889 C.2     1  UNL1       -0.0042
     12 C         145.1747  141.0261  162.7765 C.2     1  UNL1        0.0006
     13 C         143.8534  141.3987  162.1722 C.2     1  UNL1        0.0111
     14 H         141.1864  140.6577  157.8486 H       1  UNL1        0.1244
     15 C         138.2679  142.5682  157.0265 C.ar    1  UNL1        0.0945
     16 C         137.2036  141.5177  157.1438 C.ar    1  UNL1        0.1053
     17 N         137.3589  140.3996  158.1317 N.ar    1  UNL1       -0.2424
     18 C         138.5786  140.3322  159.0023 C.ar    1  UNL1        0.0965
     19 C         139.6429  141.3827  158.8850 C.ar    1  UNL1        0.0191
     20 C         139.4875  142.5007  157.8971 C.ar    1  UNL1        0.0072
     21 C         138.1124  143.6862  156.0386 C.2     1  UNL1        0.3427
     22 O         136.7458  144.0843  155.5654 O.2     1  UNL1       -0.2448
     23 O         139.3235  144.4060  155.5239 O.3     1  UNL1       -0.4454
     24 C         140.1329  146.2307  157.1868 C.3     1  UNL1        0.0513
     25 C         139.5377  145.8513  155.8633 C.3     1  UNL1        0.2089
     26 C         140.1185  142.4263  160.4353 C.ar    1  UNL1        0.0393
     27 C         140.2188  143.8859  160.1050 C.ar    1  UNL1        0.1193
     28 N         139.3058  144.6344  161.0303 N.ar    1  UNL1       -0.1679
     29 N         138.6412  143.6372  161.9325 N.ar    1  UNL1       -0.2476
     30 C         137.6486  143.9499  163.0128 C.3     1  UNL1        0.1537
     31 C         139.1435  142.2725  161.5648 C.ar    1  UNL1        0.0943
     32 C         142.7853  138.3708  157.9160 C.ar    1  UNL1        0.1318
     33 N         142.3654  136.9347  158.0229 N.ar    1  UNL1       -0.2298
     34 C         142.9026  136.2047  156.8276 C.ar    1  UNL1        0.0996
     35 C         143.6543  137.1896  155.9822 C.ar    1  UNL1        0.0927
     36 N         143.5818  138.5283  156.6549 N.ar    1  UNL1       -0.3386
     37 H         143.9861  139.3637  156.3263 H       1  UNL1        0.1672
     38 C         142.7200  134.7458  156.5301 C.ar    1  UNL1        0.0193
     39 C         141.7415  134.3114  155.4794 C.ar    1  UNL1        0.0039
     40 C         141.5589  132.8526  155.1819 C.ar    1  UNL1        0.0297
     41 C         142.3547  131.8283  155.9351 C.ar    1  UNL1        0.1401
     42 F         142.1721  130.3694  155.6376 F       1  UNL1       -0.2042
     43 C         143.3332  132.2627  156.9858 C.ar    1  UNL1        0.0297
     44 C         143.5158  133.7215  157.2833 C.ar    1  UNL1        0.0039
@<TRIPOS>BOND
     1    24    25    1
     2    25    23    1
     3    23    21    1
     4    21    22    2
     5    21    15    1
     6    15    16   ar
     7    16    17   ar
     8    17    18   ar
     9    18    19   ar
    10     1    19    1
    11     1    26    1
    12    26    27   ar
    13    27    28   ar
    14    28    29   ar
    15    29    30    1
    16    29    31   ar
    17     1     2    1
    18     2     3    1
    19     3    32    1
    20    32    33   ar
    21    33    34   ar
    22    34    38    1
    23    38    39   ar
    24    39    40   ar
    25    40    41   ar
    26    41    42    1
    27    41    43   ar
    28    43    44   ar
    29    34    35   ar
    30    35    36   ar
    31     3     4    1
    32     4     5    1
    33     5     6    2
    34     6     7    1
    35     7     8    2
    36     8     9    1
    37     9    10    1
    38    10    11    2
    39    11    12    1
    40    12    13    2
    41    19    20   ar
    42    20    15   ar
    43     6     1    1
    44    13     8    1
    45    31    26   ar
    46    36    32   ar
    47    13     5    1
    48    44    38   ar
    49     2    14    1
    50    36    37    1
@<TRIPOS>MOLECULE
*****
 44 50 0 0 0
SMALL
GASTEIGER

@<TRIPOS>ATOM
      1 C         142.4710  139.9995  159.4548 C.3     1  UNL1        0.1205
      2 N         143.2133  140.4456  158.2301 N.3     1  UNL1       -0.2835
      3 C         144.1242  141.6355  158.2970 C.3     1  UNL1        0.1165
      4 C         144.2928  142.3792  159.5887 C.3     1  UNL1        0.0511
      5 C         143.5505  141.9331  160.8135 C.2     1  UNL1       -0.0038
      6 C         142.6396  140.7432  160.7465 C.2     1  UNL1        0.0753
      7 N         142.0431  140.5390  162.1075 N.2     1  UNL1       -0.2520
      8 C         142.5853  141.6026  163.0157 C.2     1  UNL1        0.0627
      9 C         142.3511  141.8978  164.4675 C.3     1  UNL1        0.0717
     10 C         143.0485  143.0547  165.1196 C.2     1  UNL1       -0.0198
     11 C         143.9802  143.9163  164.3198 C.2     1  UNL1       -0.0042
     12 C         144.2144  143.6211  162.8679 C.2     1  UNL1        0.0006
     13 C         143.5170  142.4642  162.2159 C.2     1  UNL1        0.0111
     14 H         142.5115  140.6517  157.5191 H       1  UNL1        0.1244
     15 C         142.3881  136.8107  157.0936 C.ar    1  UNL1        0.0945
     16 C         141.0164  136.9336  156.4994 C.ar    1  UNL1        0.1053
     17 N         140.1294  138.0784  156.8903 N.ar    1  UNL1       -0.2424
     18 C         140.6144  139.1004  157.8754 C.ar    1  UNL1        0.0965
     19 C         141.9861  138.9775  158.4697 C.ar    1  UNL1        0.0191
     20 C         142.8730  137.8327  158.0787 C.ar    1  UNL1        0.0072
     21 C         143.2750  135.6659  156.7027 C.2     1  UNL1        0.3427
     22 O         144.2126  135.8065  155.5404 O.2     1  UNL1       -0.2448
     23 O         143.2242  134.3805  157.4741 O.3     1  UNL1       -0.4454
     24 C         141.8652  133.0742  155.6861 C.3     1  UNL1        0.0513
     25 C         142.9015  133.0957  156.7703 C.3     1  UNL1        0.2089
     26 C         141.5603  139.1984  160.3375 C.ar    1  UNL1        0.0393
     27 C         141.9520  138.0043  161.1562 C.ar    1  UNL1        0.1193
     28 N         140.7317  137.5188  161.8811 N.ar    1  UNL1       -0.1679
     29 N         139.5859  138.4130  161.5102 N.ar    1  UNL1       -0.2476
     30 C         138.1756  138.2905  162.0063 C.3     1  UNL1        0.1537
     31 C         140.0980  139.4511  160.5562 C.ar    1  UNL1        0.0943
     32 C         144.8665  142.0817  157.0723 C.ar    1  UNL1        0.1318
     33 N         146.3354  141.9113  156.8208 N.ar    1  UNL1       -0.2298
     34 C         146.6470  142.5008  155.4771 C.ar    1  UNL1        0.0996
     35 C         145.3707  143.0355  154.8983 C.ar    1  UNL1        0.0927
     36 N         144.2703  142.7765  155.8842 N.ar    1  UNL1       -0.3386
     37 H         143.3230  143.0198  155.7712 H       1  UNL1        0.1672
     38 C         147.9978  142.5474  154.8266 C.ar    1  UNL1        0.0193
     39 C         149.1271  141.7324  155.3838 C.ar    1  UNL1        0.0039
     40 C         150.4779  141.7790  154.7333 C.ar    1  UNL1        0.0297
     41 C         150.6994  142.6406  153.5256 C.ar    1  UNL1        0.1401
     42 F         152.0502  142.6873  152.8750 F       1  UNL1       -0.2042
     43 C         149.5701  143.4556  152.9684 C.ar    1  UNL1        0.0297
     44 C         148.2193  143.4090  153.6189 C.ar    1  UNL1        0.0039
@<TRIPOS>BOND
     1    24    25    1
     2    25    23    1
     3    23    21    1
     4    21    22    2
     5    21    15    1
     6    15    16   ar
     7    16    17   ar
     8    17    18   ar
     9    18    19   ar
    10     1    19    1
    11     1    26    1
    12    26    27   ar
    13    27    28   ar
    14    28    29   ar
    15    29    30    1
    16    29    31   ar
    17     1     2    1
    18     2     3    1
    19     3    32    1
    20    32    33   ar
    21    33    34   ar
    22    34    38    1
    23    38    39   ar
    24    39    40   ar
    25    40    41   ar
    26    41    42    1
    27    41    43   ar
    28    43    44   ar
    29    34    35   ar
    30    35    36   ar
    31     3     4    1
    32     4     5    1
    33     5     6    2
    34     6     7    1
    35     7     8    2
    36     8     9    1
    37     9    10    1
    38    10    11    2
    39    11    12    1
    40    12    13    2
    41    19    20   ar
    42    20    15   ar
    43     6     1    1
    44    13     8    1
    45    31    26   ar
    46    36    32   ar
    47    13     5    1
    48    44    38   ar
    49     2    14    1
    50    36    37    1
@<TRIPOS>MOLECULE
*****
 44 50 0 0 0
SMALL
GASTEIGER

@<TRIPOS>ATOM
      1 C         142.3506  142.6489  159.7418 C.3     1  UNL1        0.1205
      2 N         141.8599  143.3454  158.5073 N.3     1  UNL1       -0.2835
      3 C         140.7372  144.3357  158.6010 C.3     1  UNL1        0.1165
      4 C         140.1053  144.6297  159.9293 C.3     1  UNL1        0.0511
      5 C         140.5960  143.9332  161.1638 C.2     1  UNL1       -0.0038
      6 C         141.7187  142.9428  161.0701 C.2     1  UNL1        0.0753
      7 N         141.9880  142.4158  162.4484 N.2     1  UNL1       -0.2520
      8 C         141.0319  143.0804  163.3939 C.2     1  UNL1        0.0627
      9 C         140.8335  142.9528  164.8752 C.3     1  UNL1        0.0717
     10 C         139.7747  143.7630  165.5626 C.2     1  UNL1       -0.0198
     11 C         138.9144  144.7008  164.7687 C.2     1  UNL1       -0.0042
     12 C         139.1128  144.8285  163.2874 C.2     1  UNL1        0.0006
     13 C         140.1716  144.0182  162.6000 C.2     1  UNL1        0.0111
     14 H         141.5575  142.6179  157.8593 H       1  UNL1        0.1244
     15 C         145.5002  142.0676  157.3983 C.ar    1  UNL1        0.0945
     16 C         145.0878  140.8210  156.6732 C.ar    1  UNL1        0.1053
     17 N         143.7630  140.1836  156.9710 N.ar    1  UNL1       -0.2424
     18 C         142.8506  140.7930  157.9939 C.ar    1  UNL1        0.0965
     19 C         143.2630  142.0396  158.7190 C.ar    1  UNL1        0.0191
     20 C         144.5878  142.6769  158.4212 C.ar    1  UNL1        0.0072
     21 C         146.8251  142.7049  157.1005 C.2     1  UNL1        0.3427
     22 O         147.6319  143.3114  158.2102 O.2     1  UNL1       -0.2448
     23 O         147.3430  142.7357  155.6932 O.3     1  UNL1       -0.4454
     24 C         149.7335  141.7822  155.3372 C.3     1  UNL1        0.0513
     25 C         148.2461  141.6432  155.2023 C.3     1  UNL1        0.2089
     26 C         143.1582  141.7408  160.6212 C.ar    1  UNL1        0.0393
     27 C         144.4506  142.0892  161.2980 C.ar    1  UNL1        0.1193
     28 N         144.9062  140.8886  162.0732 N.ar    1  UNL1       -0.1679
     29 N         143.8954  139.7982  161.8755 N.ar    1  UNL1       -0.2476
     30 C         143.9545  138.4226  162.4706 C.3     1  UNL1        0.1537
     31 C         142.8150  140.3249  160.9780 C.ar    1  UNL1        0.0943
     32 C         140.2465  145.0323  157.3664 C.ar    1  UNL1        0.1318
     33 N         140.2993  146.5087  157.1073 N.ar    1  UNL1       -0.2298
     34 C         139.7022  146.7636  155.7550 C.ar    1  UNL1        0.0996
     35 C         139.2804  145.4446  155.1785 C.ar    1  UNL1        0.0927
     36 N         139.6168  144.3746  156.1744 N.ar    1  UNL1       -0.3386
     37 H         139.4530  143.4100  156.0650 H       1  UNL1        0.1672
     38 C         139.5531  148.1024  155.0951 C.ar    1  UNL1        0.0193
     39 C         138.8443  149.2154  155.8085 C.ar    1  UNL1        0.0039
     40 C         138.6952  150.5541  155.1486 C.ar    1  UNL1        0.0297
     41 C         139.2550  150.7800  153.7755 C.ar    1  UNL1        0.1401
     42 F         139.1059  152.1188  153.1156 F       1  UNL1       -0.2042
     43 C         139.9638  149.6670  153.0621 C.ar    1  UNL1        0.0297
     44 C         140.1129  148.3282  153.7219 C.ar    1  UNL1        0.0039
@<TRIPOS>BOND
     1    24    25    1
     2    25    23    1
     3    23    21    1
     4    21    22    2
     5    21    15    1
     6    15    16   ar
     7    16    17   ar
     8    17    18   ar
     9    18    19   ar
    10     1    19    1
    11     1    26    1
    12    26    27   ar
    13    27    28   ar
    14    28    29   ar
    15    29    30    1
    16    29    31   ar
    17     1     2    1
    18     2     3    1
    19     3    32    1
    20    32    33   ar
    21    33    34   ar
    22    34    38    1
    23    38    39   ar
    24    39    40   ar
    25    40    41   ar
    26    41    42    1
    27    41    43   ar
    28    43    44   ar
    29    34    35   ar
    30    35    36   ar
    31     3     4    1
    32     4     5    1
    33     5     6    2
    34     6     7    1
    35     7     8    2
    36     8     9    1
    37     9    10    1
    38    10    11    2
    39    11    12    1
    40    12    13    2
    41    19    20   ar
    42    20    15   ar
    43     6     1    1
    44    13     8    1
    45    31    26   ar
    46    36    32   ar
    47    13     5    1
    48    44    38   ar
    49     2    14    1
    50    36    37    1
@<TRIPOS>MOLECULE
*****
 44 50 0 0 0
SMALL
GASTEIGER

@<TRIPOS>ATOM
      1 C         142.4364  141.1831  159.7952 C.3     1  UNL1        0.1205
      2 N         142.8295  139.8980  159.1290 N.3     1  UNL1       -0.2835
      3 C         142.7650  139.7772  157.6352 C.3     1  UNL1        0.1165
      4 C         142.3075  140.9417  156.8077 C.3     1  UNL1        0.0511
      5 C         141.9145  142.2269  157.4739 C.2     1  UNL1       -0.0038
      6 C         141.9789  142.3476  158.9676 C.2     1  UNL1        0.0753
      7 N         141.5318  143.7299  159.3406 N.2     1  UNL1       -0.2520
      8 C         141.1910  144.4636  158.0774 C.2     1  UNL1        0.0627
      9 C         140.6959  145.8574  157.8287 C.3     1  UNL1        0.0717
     10 C         140.4373  146.3224  156.4262 C.2     1  UNL1       -0.0198
     11 C         140.6739  145.3934  155.2725 C.2     1  UNL1       -0.0042
     12 C         141.1690  143.9995  155.5212 C.2     1  UNL1        0.0006
     13 C         141.4275  143.5346  156.9237 C.2     1  UNL1        0.0111
     14 H         142.2229  139.1715  159.5095 H       1  UNL1        0.1244
     15 C         142.1850  138.5661  162.7680 C.ar    1  UNL1        0.0945
     16 C         143.5314  138.7334  163.4076 C.ar    1  UNL1        0.1053
     17 N         144.5128  139.7173  162.8431 N.ar    1  UNL1       -0.2424
     18 C         144.1478  140.5339  161.6389 C.ar    1  UNL1        0.0965
     19 C         142.8014  140.3666  160.9993 C.ar    1  UNL1        0.0191
     20 C         141.8200  139.3826  161.5639 C.ar    1  UNL1        0.0072
     21 C         141.2036  137.5821  163.3326 C.2     1  UNL1        0.3427
     22 O         141.4494  136.9654  164.6777 O.2     1  UNL1       -0.2448
     23 O         139.9764  137.2150  162.5521 O.3     1  UNL1       -0.4454
     24 C         137.7917  138.3599  161.7358 C.3     1  UNL1        0.0513
     25 C         138.6673  137.8814  162.8557 C.3     1  UNL1        0.2089
     26 C         142.1701  142.1848  160.8796 C.ar    1  UNL1        0.0393
     27 C         140.8717  142.3727  161.6066 C.ar    1  UNL1        0.1193
     28 N         141.0547  143.4785  162.6037 N.ar    1  UNL1       -0.1679
     29 N         142.4661  143.9738  162.4927 N.ar    1  UNL1       -0.2476
     30 C         143.0804  145.0753  163.3048 C.3     1  UNL1        0.1537
     31 C         143.1555  143.1742  161.4271 C.ar    1  UNL1        0.0943
     32 C         143.1581  138.4920  156.9690 C.ar    1  UNL1        0.1318
     33 N         142.6154  137.1309  157.2895 N.ar    1  UNL1       -0.2298
     34 C         143.2847  136.1400  156.3839 C.ar    1  UNL1        0.0996
     35 C         144.2411  136.8888  155.5037 C.ar    1  UNL1        0.0927
     36 N         144.1628  138.3424  155.8653 N.ar    1  UNL1       -0.3386
     37 H         144.6801  139.0704  155.4510 H       1  UNL1        0.1672
     38 C         143.0405  134.6601  156.3623 C.ar    1  UNL1        0.0193
     39 C         143.8980  133.7464  157.1868 C.ar    1  UNL1        0.0039
     40 C         143.6538  132.2666  157.1653 C.ar    1  UNL1        0.0297
     41 C         142.5522  131.7005  156.3191 C.ar    1  UNL1        0.1401
     42 F         142.3080  130.2206  156.2975 F       1  UNL1       -0.2042
     43 C         141.6948  132.6142  155.4945 C.ar    1  UNL1        0.0297
     44 C         141.9389  134.0940  155.5161 C.ar    1  UNL1        0.0039
@<TRIPOS>BOND
     1    24    25    1
     2    25    23    1
     3    23    21    1
     4    21    22    2
     5    21    15    1
     6    15    16   ar
     7    16    17   ar
     8    17    18   ar
     9    18    19   ar
    10     1    19    1
    11     1    26    1
    12    26    27   ar
    13    27    28   ar
    14    28    29   ar
    15    29    30    1
    16    29    31   ar
    17     1     2    1
    18     2     3    1
    19     3    32    1
    20    32    33   ar
    21    33    34   ar
    22    34    38    1
    23    38    39   ar
    24    39    40   ar
    25    40    41   ar
    26    41    42    1
    27    41    43   ar
    28    43    44   ar
    29    34    35   ar
    30    35    36   ar
    31     3     4    1
    32     4     5    1
    33     5     6    2
    34     6     7    1
    35     7     8    2
    36     8     9    1
    37     9    10    1
    38    10    11    2
    39    11    12    1
    40    12    13    2
    41    19    20   ar
    42    20    15   ar
    43     6     1    1
    44    13     8    1
    45    31    26   ar
    46    36    32   ar
    47    13     5    1
    48    44    38   ar
    49     2    14    1
    50    36    37    1
@<TRIPOS>MOLECULE
*****
 44 50 0 0 0
SMALL
GASTEIGER

@<TRIPOS>ATOM
      1 C         141.3596  140.4990  159.8929 C.3     1  UNL1        0.1205
      2 N         141.9064  139.2711  159.2272 N.3     1  UNL1       -0.2835
      3 C         142.2781  139.3081  157.7745 C.3     1  UNL1        0.1165
      4 C         142.1030  140.5730  156.9874 C.3     1  UNL1        0.0511
      5 C         141.5561  141.8009  157.6531 C.2     1  UNL1       -0.0038
      6 C         141.1845  141.7639  159.1058 C.2     1  UNL1        0.0753
      7 N         140.6732  143.1213  159.4881 N.2     1  UNL1       -0.2520
      8 C         140.7289  143.9971  158.2716 C.2     1  UNL1        0.0627
      9 C         140.3532  145.4323  158.0501 C.3     1  UNL1        0.0717
     10 C         140.5232  146.0514  156.6945 C.2     1  UNL1       -0.0198
     11 C         141.0689  145.2353  155.5604 C.2     1  UNL1       -0.0042
     12 C         141.4446  143.8001  155.7819 C.2     1  UNL1        0.0006
     13 C         141.2746  143.1811  157.1375 C.2     1  UNL1        0.0111
     14 H         141.2022  138.5407  159.3325 H       1  UNL1        0.1244
     15 C         142.3892  138.6746  163.2636 C.ar    1  UNL1        0.0945
     16 C         141.3092  137.6389  163.3666 C.ar    1  UNL1        0.1053
     17 N         140.2459  137.5564  162.3118 N.ar    1  UNL1       -0.2424
     18 C         140.2627  138.5099  161.1538 C.ar    1  UNL1        0.0965
     19 C         141.3428  139.5457  161.0508 C.ar    1  UNL1        0.0191
     20 C         142.4060  139.6280  162.1057 C.ar    1  UNL1        0.0072
     21 C         143.4524  138.7570  164.3185 C.2     1  UNL1        0.3427
     22 O         143.1600  138.2961  165.7156 O.2     1  UNL1       -0.2448
     23 O         144.8080  139.3002  163.9762 O.3     1  UNL1       -0.4454
     24 C         145.5066  141.6411  163.0916 C.3     1  UNL1        0.0513
     25 C         145.1236  140.7443  164.2313 C.3     1  UNL1        0.2089
     26 C         140.8069  141.3959  160.9607 C.ar    1  UNL1        0.0393
     27 C         141.6041  142.3052  161.8481 C.ar    1  UNL1        0.1193
     28 N         140.6498  143.0122  162.7644 N.ar    1  UNL1       -0.1679
     29 N         139.2628  142.5397  162.4433 N.ar    1  UNL1       -0.2476
     30 C         138.0004  142.9876  163.1184 C.3     1  UNL1        0.1537
     31 C         139.3600  141.5408  161.3285 C.ar    1  UNL1        0.0943
     32 C         142.8250  138.0801  157.1087 C.ar    1  UNL1        0.1318
     33 N         142.4197  136.6654  157.3988 N.ar    1  UNL1       -0.2298
     34 C         143.2173  135.7622  156.5054 C.ar    1  UNL1        0.0996
     35 C         144.1155  136.6188  155.6632 C.ar    1  UNL1        0.0927
     36 N         143.8730  138.0514  156.0360 N.ar    1  UNL1       -0.3386
     37 H         144.3228  138.8351  155.6453 H       1  UNL1        0.1672
     38 C         143.1317  134.2653  156.4619 C.ar    1  UNL1        0.0193
     39 C         144.1066  133.4353  157.2435 C.ar    1  UNL1        0.0039
     40 C         144.0210  131.9384  157.2000 C.ar    1  UNL1        0.0297
     41 C         142.9606  131.2715  156.3750 C.ar    1  UNL1        0.1401
     42 F         142.8750  129.7745  156.3315 F       1  UNL1       -0.2042
     43 C         141.9857  132.1014  155.5935 C.ar    1  UNL1        0.0297
     44 C         142.0713  133.5983  155.6369 C.ar    1  UNL1        0.0039
@<TRIPOS>BOND
     1    24    25    1
     2    25    23    1
     3    23    21    1
     4    21    22    2
     5    21    15    1
     6    15    16   ar
     7    16    17   ar
     8    17    18   ar
     9    18    19   ar
    10     1    19    1
    11     1    26    1
    12    26    27   ar
    13    27    28   ar
    14    28    29   ar
    15    29    30    1
    16    29    31   ar
    17     1     2    1
    18     2     3    1
    19     3    32    1
    20    32    33   ar
    21    33    34   ar
    22    34    38    1
    23    38    39   ar
    24    39    40   ar
    25    40    41   ar
    26    41    42    1
    27    41    43   ar
    28    43    44   ar
    29    34    35   ar
    30    35    36   ar
    31     3     4    1
    32     4     5    1
    33     5     6    2
    34     6     7    1
    35     7     8    2
    36     8     9    1
    37     9    10    1
    38    10    11    2
    39    11    12    1
    40    12    13    2
    41    19    20   ar
    42    20    15   ar
    43     6     1    1
    44    13     8    1
    45    31    26   ar
    46    36    32   ar
    47    13     5    1
    48    44    38   ar
    49     2    14    1
    50    36    37    1
@<TRIPOS>MOLECULE
*****
 44 50 0 0 0
SMALL
GASTEIGER

@<TRIPOS>ATOM
      1 C         139.8305  140.7149  159.3728 C.3     1  UNL1        0.1205
      2 N         140.0698  139.3878  158.7159 N.3     1  UNL1       -0.2835
      3 C         140.5140  139.3288  157.2844 C.3     1  UNL1        0.1165
      4 C         140.7188  140.5969  156.5098 C.3     1  UNL1        0.0511
      5 C         140.4794  141.9240  157.1667 C.2     1  UNL1       -0.0038
      6 C         140.0352  141.9830  158.5982 C.2     1  UNL1        0.0753
      7 N         139.8790  143.4262  158.9759 N.2     1  UNL1       -0.2520
      8 C         140.2266  144.2592  157.7778 C.2     1  UNL1        0.0627
      9 C         140.2532  145.7431  157.5606 C.3     1  UNL1        0.0717
     10 C         140.6508  146.2986  156.2253 C.2     1  UNL1       -0.0198
     11 C         141.0219  145.3702  155.1071 C.2     1  UNL1       -0.0042
     12 C         140.9953  143.8863  155.3243 C.2     1  UNL1        0.0006
     13 C         140.5977  143.3308  156.6596 C.2     1  UNL1        0.0111
     14 H         139.1940  138.8682  158.7741 H       1  UNL1        0.1244
     15 C         140.2787  138.2814  162.4755 C.ar    1  UNL1        0.0945
     16 C         138.8482  137.9612  162.7936 C.ar    1  UNL1        0.1053
     17 N         137.7451  138.5589  161.9715 N.ar    1  UNL1       -0.2424
     18 C         138.0726  139.4768  160.8311 C.ar    1  UNL1        0.0965
     19 C         139.5031  139.7970  160.5130 C.ar    1  UNL1        0.0191
     20 C         140.6061  139.1993  161.3353 C.ar    1  UNL1        0.0072
     21 C         141.3817  137.6836  163.2978 C.2     1  UNL1        0.3427
     22 O         141.0529  136.8367  164.4914 O.2     1  UNL1       -0.2448
     23 O         142.8134  137.9328  162.9264 O.3     1  UNL1       -0.4454
     24 C         143.8699  138.9628  165.0649 C.3     1  UNL1        0.0513
     25 C         143.5807  139.0349  163.5948 C.3     1  UNL1        0.2089
     26 C         139.4774  141.7232  160.4257 C.ar    1  UNL1        0.0393
     27 C         138.1304  142.3510  160.6288 C.ar    1  UNL1        0.1193
     28 N         138.2299  143.2966  161.7891 N.ar    1  UNL1       -0.1679
     29 N         139.6385  143.2532  162.3029 N.ar    1  UNL1       -0.2476
     30 C         140.1808  144.0434  163.4568 C.3     1  UNL1        0.1537
     31 C         140.4095  142.2807  161.4603 C.ar    1  UNL1        0.0943
     32 C         140.7534  138.0017  156.6274 C.ar    1  UNL1        0.1318
     33 N         141.8323  137.0229  156.9849 N.ar    1  UNL1       -0.2298
     34 C         141.7017  135.8367  156.0761 C.ar    1  UNL1        0.0996
     35 C         140.5420  136.0825  155.1569 C.ar    1  UNL1        0.0927
     36 N         139.9560  137.4205  155.4977 N.ar    1  UNL1       -0.3386
     37 H         139.1836  137.8431  155.0572 H       1  UNL1        0.1672
     38 C         142.5770  134.6186  156.0849 C.ar    1  UNL1        0.0193
     39 C         142.5565  133.6719  154.9216 C.ar    1  UNL1        0.0039
     40 C         143.4318  132.4538  154.9303 C.ar    1  UNL1        0.0297
     41 C         144.3276  132.1824  156.1025 C.ar    1  UNL1        0.1401
     42 F         145.2030  130.9643  156.1113 F       1  UNL1       -0.2042
     43 C         144.3481  133.1291  157.2658 C.ar    1  UNL1        0.0297
     44 C         143.4728  134.3472  157.2570 C.ar    1  UNL1        0.0039
@<TRIPOS>BOND
     1    24    25    1
     2    25    23    1
     3    23    21    1
     4    21    22    2
     5    21    15    1
     6    15    16   ar
     7    16    17   ar
     8    17    18   ar
     9    18    19   ar
    10     1    19    1
    11     1    26    1
    12    26    27   ar
    13    27    28   ar
    14    28    29   ar
    15    29    30    1
    16    29    31   ar
    17     1     2    1
    18     2     3    1
    19     3    32    1
    20    32    33   ar
    21    33    34   ar
    22    34    38    1
    23    38    39   ar
    24    39    40   ar
    25    40    41   ar
    26    41    42    1
    27    41    43   ar
    28    43    44   ar
    29    34    35   ar
    30    35    36   ar
    31     3     4    1
    32     4     5    1
    33     5     6    2
    34     6     7    1
    35     7     8    2
    36     8     9    1
    37     9    10    1
    38    10    11    2
    39    11    12    1
    40    12    13    2
    41    19    20   ar
    42    20    15   ar
    43     6     1    1
    44    13     8    1
    45    31    26   ar
    46    36    32   ar
    47    13     5    1
    48    44    38   ar
    49     2    14    1
    50    36    37    1
@<TRIPOS>MOLECULE
*****
 44 50 0 0 0
SMALL
GASTEIGER

@<TRIPOS>ATOM
      1 C         142.0323  140.7091  159.3193 C.3     1  UNL1        0.1205
      2 N         141.8216  140.3313  160.7555 N.3     1  UNL1       -0.2835
      3 C         141.9204  138.8947  161.1754 C.3     1  UNL1        0.1165
      4 C         142.2301  137.8358  160.1590 C.3     1  UNL1        0.0511
      5 C         142.4408  138.2136  158.7228 C.2     1  UNL1       -0.0038
      6 C         142.3420  139.6502  158.3029 C.2     1  UNL1        0.0753
      7 N         142.5972  139.7201  156.8264 N.2     1  UNL1       -0.2520
      8 C         142.8538  138.3268  156.3338 C.2     1  UNL1        0.0627
      9 C         143.1629  137.7856  154.9695 C.3     1  UNL1        0.0717
     10 C         143.3754  136.3132  154.7772 C.2     1  UNL1       -0.0198
     11 C         143.2788  135.3821  155.9492 C.2     1  UNL1       -0.0042
     12 C         142.9697  135.9233  157.3135 C.2     1  UNL1        0.0006
     13 C         142.7571  137.3956  157.5058 C.2     1  UNL1        0.0111
     14 H         140.8859  140.6485  161.0092 H       1  UNL1        0.1244
     15 C         140.1443  143.7296  161.0690 C.ar    1  UNL1        0.0945
     16 C         141.2258  144.7689  161.0848 C.ar    1  UNL1        0.1053
     17 N         142.5761  144.4550  160.5121 N.ar    1  UNL1       -0.2424
     18 C         142.8450  143.1016  159.9236 C.ar    1  UNL1        0.0965
     19 C         141.7635  142.0623  159.9078 C.ar    1  UNL1        0.0191
     20 C         140.4131  142.3764  160.4805 C.ar    1  UNL1        0.0072
     21 C         138.7939  144.0437  161.6417 C.2     1  UNL1        0.3427
     22 O         138.5040  145.4177  162.1689 O.2     1  UNL1       -0.2448
     23 O         137.7336  142.9837  161.6871 O.3     1  UNL1       -0.4454
     24 C         138.0775  140.8389  163.1125 C.3     1  UNL1        0.0513
     25 C         137.4975  142.2129  162.9521 C.3     1  UNL1        0.2089
     26 C         142.1497  141.5568  158.0873 C.ar    1  UNL1        0.0393
     27 C         143.4241  142.0858  157.4993 C.ar    1  UNL1        0.1193
     28 N         143.0753  142.8803  156.2757 N.ar    1  UNL1       -0.1679
     29 N         141.5852  142.8423  156.1076 N.ar    1  UNL1       -0.2476
     30 C         140.8043  143.5057  155.0121 C.3     1  UNL1        0.1537
     31 C         141.0132  142.0243  157.2273 C.ar    1  UNL1        0.0943
     32 C         141.7097  138.5168  162.6117 C.ar    1  UNL1        0.1318
     33 N         141.6975  139.4593  163.7786 N.ar    1  UNL1       -0.2298
     34 C         141.4544  138.6552  165.0213 C.ar    1  UNL1        0.0996
     35 C         141.3163  137.2158  164.6224 C.ar    1  UNL1        0.0927
     36 N         141.4741  137.1303  163.1332 N.ar    1  UNL1       -0.3386
     37 H         141.4307  136.3084  162.5930 H       1  UNL1        0.1672
     38 C         141.3650  139.1957  166.4177 C.ar    1  UNL1        0.0193
     39 C         140.0538  139.6989  166.9447 C.ar    1  UNL1        0.0039
     40 C         139.9644  140.2393  168.3411 C.ar    1  UNL1        0.0297
     41 C         141.1862  140.2766  169.2105 C.ar    1  UNL1        0.1401
     42 F         141.0968  140.8171  170.6069 F       1  UNL1       -0.2042
     43 C         142.4973  139.7734  168.6835 C.ar    1  UNL1        0.0297
     44 C         142.5868  139.2330  167.2871 C.ar    1  UNL1        0.0039
@<TRIPOS>BOND
     1    24    25    1
     2    25    23    1
     3    23    21    1
     4    21    22    2
     5    21    15    1
     6    15    16   ar
     7    16    17   ar
     8    17    18   ar
     9    18    19   ar
    10     1    19    1
    11     1    26    1
    12    26    27   ar
    13    27    28   ar
    14    28    29   ar
    15    29    30    1
    16    29    31   ar
    17     1     2    1
    18     2     3    1
    19     3    32    1
    20    32    33   ar
    21    33    34   ar
    22    34    38    1
    23    38    39   ar
    24    39    40   ar
    25    40    41   ar
    26    41    42    1
    27    41    43   ar
    28    43    44   ar
    29    34    35   ar
    30    35    36   ar
    31     3     4    1
    32     4     5    1
    33     5     6    2
    34     6     7    1
    35     7     8    2
    36     8     9    1
    37     9    10    1
    38    10    11    2
    39    11    12    1
    40    12    13    2
    41    19    20   ar
    42    20    15   ar
    43     6     1    1
    44    13     8    1
    45    31    26   ar
    46    36    32   ar
    47    13     5    1
    48    44    38   ar
    49     2    14    1
    50    36    37    1
@<TRIPOS>MOLECULE
*****
 44 50 0 0 0
SMALL
GASTEIGER

@<TRIPOS>ATOM
      1 C         141.8344  140.9441  159.1135 C.3     1  UNL1        0.1205
      2 N         141.1317  140.5821  160.3883 N.3     1  UNL1       -0.2835
      3 C         140.9577  139.1408  160.7656 C.3     1  UNL1        0.1165
      4 C         141.4865  138.0615  159.8681 C.3     1  UNL1        0.0511
      5 C         142.1892  138.4234  158.5933 C.2     1  UNL1       -0.0038
      6 C         142.3632  139.8648  158.2160 C.2     1  UNL1        0.0753
      7 N         143.0932  139.9162  156.9066 N.2     1  UNL1       -0.2520
      8 C         143.3703  138.5068  156.4747 C.2     1  UNL1        0.0627
      9 C         144.0592  137.9443  155.2668 C.3     1  UNL1        0.0717
     10 C         144.1895  136.4591  155.1014 C.2     1  UNL1       -0.0198
     11 C         143.6308  135.5365  156.1439 C.2     1  UNL1       -0.0042
     12 C         142.9419  136.0990  157.3517 C.2     1  UNL1        0.0006
     13 C         142.8117  137.5841  157.5171 C.2     1  UNL1        0.0111
     14 H         140.1972  140.9873  160.3347 H       1  UNL1        0.1244
     15 C         141.9143  144.2267  161.3424 C.ar    1  UNL1        0.0945
     16 C         140.8632  145.0550  160.6648 C.ar    1  UNL1        0.1053
     17 N         140.1358  144.5131  159.4702 N.ar    1  UNL1       -0.2424
     18 C         140.4596  143.1427  158.9531 C.ar    1  UNL1        0.0965
     19 C         141.5107  142.3144  159.6306 C.ar    1  UNL1        0.0191
     20 C         142.2381  142.8564  160.8253 C.ar    1  UNL1        0.0072
     21 C         142.6417  144.7688  162.5370 C.2     1  UNL1        0.3427
     22 O         144.1365  144.8914  162.5130 O.2     1  UNL1       -0.2448
     23 O         141.8743  145.1882  163.7556 O.3     1  UNL1       -0.4454
     24 C         139.3302  144.8600  164.1680 C.3     1  UNL1        0.0513
     25 C         140.7368  144.3459  164.2523 C.3     1  UNL1        0.2089
     26 C         142.4248  141.7820  158.0183 C.ar    1  UNL1        0.0393
     27 C         143.7974  142.3866  158.0132 C.ar    1  UNL1        0.1193
     28 N         143.9670  143.1406  156.7275 N.ar    1  UNL1       -0.1679
     29 N         142.6991  143.0019  155.9381 N.ar    1  UNL1       -0.2476
     30 C         142.4314  143.5982  154.5880 C.3     1  UNL1        0.1537
     31 C         141.7459  142.1621  156.7359 C.ar    1  UNL1        0.0943
     32 C         140.2550  138.7787  162.0405 C.ar    1  UNL1        0.1318
     33 N         140.3927  139.4878  163.3551 N.ar    1  UNL1       -0.2298
     34 C         139.5140  138.7914  164.3516 C.ar    1  UNL1        0.0996
     35 C         138.8333  137.6520  163.6528 C.ar    1  UNL1        0.0927
     36 N         139.2912  137.6442  162.2244 N.ar    1  UNL1       -0.3386
     37 H         139.0088  137.0064  161.5297 H       1  UNL1        0.1672
     38 C         139.3457  139.1683  165.7937 C.ar    1  UNL1        0.0193
     39 C         140.4071  139.9686  166.4885 C.ar    1  UNL1        0.0039
     40 C         140.2388  140.3455  167.9306 C.ar    1  UNL1        0.0297
     41 C         139.0091  139.9221  168.6778 C.ar    1  UNL1        0.1401
     42 F         138.8407  140.2990  170.1200 F       1  UNL1       -0.2042
     43 C         137.9477  139.1217  167.9830 C.ar    1  UNL1        0.0297
     44 C         138.1159  138.7448  166.5409 C.ar    1  UNL1        0.0039
@<TRIPOS>BOND
     1    24    25    1
     2    25    23    1
     3    23    21    1
     4    21    22    2
     5    21    15    1
     6    15    16   ar
     7    16    17   ar
     8    17    18   ar
     9    18    19   ar
    10     1    19    1
    11     1    26    1
    12    26    27   ar
    13    27    28   ar
    14    28    29   ar
    15    29    30    1
    16    29    31   ar
    17     1     2    1
    18     2     3    1
    19     3    32    1
    20    32    33   ar
    21    33    34   ar
    22    34    38    1
    23    38    39   ar
    24    39    40   ar
    25    40    41   ar
    26    41    42    1
    27    41    43   ar
    28    43    44   ar
    29    34    35   ar
    30    35    36   ar
    31     3     4    1
    32     4     5    1
    33     5     6    2
    34     6     7    1
    35     7     8    2
    36     8     9    1
    37     9    10    1
    38    10    11    2
    39    11    12    1
    40    12    13    2
    41    19    20   ar
    42    20    15   ar
    43     6     1    1
    44    13     8    1
    45    31    26   ar
    46    36    32   ar
    47    13     5    1
    48    44    38   ar
    49     2    14    1
    50    36    37    1
@<TRIPOS>MOLECULE
*****
 44 50 0 0 0
SMALL
GASTEIGER

@<TRIPOS>ATOM
      1 C         141.7823  141.2090  159.0227 C.3     1  UNL1        0.1205
      2 N         142.2730  141.1227  160.4375 N.3     1  UNL1       -0.2835
      3 C         142.8813  139.8486  160.9440 C.3     1  UNL1        0.1165
      4 C         142.9988  138.6607  160.0356 C.3     1  UNL1        0.0511
      5 C         142.5080  138.7469  158.6208 C.2     1  UNL1       -0.0038
      6 C         141.8998  140.0211  158.1144 C.2     1  UNL1        0.0753
      7 N         141.5069  139.8100  156.6822 N.2     1  UNL1       -0.2520
      8 C         141.8723  138.4053  156.3035 C.2     1  UNL1        0.0627
      9 C         141.7216  137.6396  155.0226 C.3     1  UNL1        0.0717
     10 C         142.1896  136.2169  154.9397 C.2     1  UNL1       -0.0198
     11 C         142.8083  135.5599  156.1378 C.2     1  UNL1       -0.0042
     12 C         142.9591  136.3256  157.4188 C.2     1  UNL1        0.0006
     13 C         142.4911  137.7483  157.5017 C.2     1  UNL1        0.0111
     14 H         141.4751  141.3275  161.0390 H       1  UNL1        0.1244
     15 C         140.0781  144.1827  161.0234 C.ar    1  UNL1        0.0945
     16 C         140.7999  145.3637  160.4452 C.ar    1  UNL1        0.1053
     17 N         141.8492  145.1598  159.3929 N.ar    1  UNL1       -0.2424
     18 C         142.1767  143.7748  158.9187 C.ar    1  UNL1        0.0965
     19 C         141.4548  142.5939  159.4969 C.ar    1  UNL1        0.0191
     20 C         140.4055  142.7979  160.5492 C.ar    1  UNL1        0.0072
     21 C         139.0288  144.3868  162.0757 C.2     1  UNL1        0.3427
     22 O         139.2553  145.3782  163.1783 O.2     1  UNL1       -0.2448
     23 O         137.7531  143.5993  162.0254 O.3     1  UNL1       -0.4454
     24 C         137.7802  142.4625  164.3614 C.3     1  UNL1        0.0513
     25 C         137.5942  142.3739  162.8757 C.3     1  UNL1        0.2089
     26 C         141.1778  141.7762  157.7725 C.ar    1  UNL1        0.0393
     27 C         141.9319  142.3621  156.6159 C.ar    1  UNL1        0.1193
     28 N         140.9331  142.8051  155.5881 N.ar    1  UNL1       -0.1679
     29 N         139.5618  142.4929  156.1096 N.ar    1  UNL1       -0.2476
     30 C         138.2667  142.7683  155.4047 C.3     1  UNL1        0.1537
     31 C         139.7130  141.8570  157.4597 C.ar    1  UNL1        0.0943
     32 C         143.3720  139.7622  162.3589 C.ar    1  UNL1        0.1318
     33 N         142.6235  140.2069  163.5803 N.ar    1  UNL1       -0.2298
     34 C         143.4863  139.9356  164.7770 C.ar    1  UNL1        0.0996
     35 C         144.7680  139.3233  164.2951 C.ar    1  UNL1        0.0927
     36 N         144.6974  139.2161  162.8006 N.ar    1  UNL1       -0.3386
     37 H         145.3979  138.8514  162.2128 H       1  UNL1        0.1672
     38 C         143.1299  140.2257  166.2049 C.ar    1  UNL1        0.0193
     39 C         142.8971  139.0963  167.1641 C.ar    1  UNL1        0.0039
     40 C         142.5408  139.3863  168.5920 C.ar    1  UNL1        0.0297
     41 C         142.4171  140.8058  169.0606 C.ar    1  UNL1        0.1401
     42 F         142.0607  141.0960  170.4885 F       1  UNL1       -0.2042
     43 C         142.6499  141.9353  168.1013 C.ar    1  UNL1        0.0297
     44 C         143.0063  141.6452  166.6735 C.ar    1  UNL1        0.0039
@<TRIPOS>BOND
     1    24    25    1
     2    25    23    1
     3    23    21    1
     4    21    22    2
     5    21    15    1
     6    15    16   ar
     7    16    17   ar
     8    17    18   ar
     9    18    19   ar
    10     1    19    1
    11     1    26    1
    12    26    27   ar
    13    27    28   ar
    14    28    29   ar
    15    29    30    1
    16    29    31   ar
    17     1     2    1
    18     2     3    1
    19     3    32    1
    20    32    33   ar
    21    33    34   ar
    22    34    38    1
    23    38    39   ar
    24    39    40   ar
    25    40    41   ar
    26    41    42    1
    27    41    43   ar
    28    43    44   ar
    29    34    35   ar
    30    35    36   ar
    31     3     4    1
    32     4     5    1
    33     5     6    2
    34     6     7    1
    35     7     8    2
    36     8     9    1
    37     9    10    1
    38    10    11    2
    39    11    12    1
    40    12    13    2
    41    19    20   ar
    42    20    15   ar
    43     6     1    1
    44    13     8    1
    45    31    26   ar
    46    36    32   ar
    47    13     5    1
    48    44    38   ar
    49     2    14    1
    50    36    37    1
