@<TRIPOS>MOLECULE
*****
 32 34 0 0 0
SMALL
GASTEIGER

@<TRIPOS>ATOM
      1 C         140.6060  138.5054  158.5160 C.3     1  UNL1        0.0720
      2 C         142.0640  138.1685  158.6195 C.3     1  UNL1        0.0213
      3 C         142.6969  137.2580  157.6094 C.3     1  UNL1        0.0213
      4 C         141.8718  136.6845  156.4957 C.3     1  UNL1        0.0719
      5 C         140.4138  137.0214  156.3921 C.3     1  UNL1        0.0213
      6 C         139.7810  137.9319  157.4023 C.3     1  UNL1        0.0213
      7 C         139.7564  138.9409  160.9323 C.2     1  UNL1        0.2460
      8 O         140.1727  137.5553  161.3284 O.2     1  UNL1       -0.2701
      9 N         139.9731  139.4160  159.5261 N.am    1  UNL1       -0.3025
     10 H         139.6998  140.3254  159.2662 H       1  UNL1        0.1497
     11 C         138.1243  142.1657  162.5715 C.ar    1  UNL1        0.1419
     12 C         137.8576  141.6724  163.9627 C.ar    1  UNL1        0.0738
     13 C         138.2238  140.2686  164.3438 C.ar    1  UNL1        0.1419
     14 C         138.8567  139.3581  163.3337 C.ar    1  UNL1        0.0416
     15 C         139.1234  139.8514  161.9425 C.ar    1  UNL1        0.0594
     16 C         138.7573  141.2552  161.5614 C.ar    1  UNL1        0.0416
     17 C         138.4021  144.7291  162.8909 C.3     1  UNL1        0.2525
     18 O         137.7582  143.5695  162.1904 O.3     1  UNL1       -0.4713
     19 O         137.9570  139.7753  165.7350 O.3     1  UNL1       -0.4713
     20 C         139.0767  139.6951  166.7299 C.3     1  UNL1        0.2525
     21 N         142.5048  135.7740  155.4855 N.pl3   1  UNL1       -0.3046
     22 H         142.9425  136.1515  154.6885 H       1  UNL1        0.1496
     23 C         142.4708  134.2883  155.6896 C.ar    1  UNL1        0.2177
     24 N         141.4159  133.4625  155.0150 N.ar    1  UNL1       -0.2181
     25 C         141.3820  131.9769  155.2191 C.ar    1  UNL1        0.0650
     26 C         140.3271  131.1510  154.5445 C.3     1  UNL1        0.0523
     27 C         142.4030  131.3170  156.0979 C.ar    1  UNL1        0.0492
     28 C         143.4580  132.1429  156.7725 C.ar    1  UNL1        0.1359
     29 N         143.4918  133.6286  156.5683 N.ar    1  UNL1       -0.1989
     30 N         144.4790  131.4831  157.6512 N.pl3   1  UNL1       -0.2896
     31 C         144.3413  130.0309  158.0012 C.3     1  UNL1        0.1136
     32 C         145.6377  132.2754  158.1800 C.3     1  UNL1        0.1136
@<TRIPOS>BOND
     1    17    18    1
     2    18    11    1
     3    11    12   ar
     4    12    13   ar
     5    13    19    1
     6    19    20    1
     7    13    14   ar
     8    14    15   ar
     9    15     7    1
    10     7     8    2
    11     7     9   am
    12     1     9    1
    13     1     2    1
    14     2     3    1
    15     3     4    1
    16     4    21    1
    17    21    23    1
    18    23    24   ar
    19    24    25   ar
    20    25    26    1
    21    25    27   ar
    22    27    28   ar
    23    28    30    1
    24    30    31    1
    25    30    32    1
    26    28    29   ar
    27     4     5    1
    28     5     6    1
    29    15    16   ar
    30    16    11   ar
    31     6     1    1
    32    29    23   ar
    33     9    10    1
    34    21    22    1
@<TRIPOS>MOLECULE
*****
 32 34 0 0 0
SMALL
GASTEIGER

@<TRIPOS>ATOM
      1 C         141.6808  138.9301  162.0957 C.3     1  UNL1        0.0720
      2 C         142.7751  137.9345  161.8484 C.3     1  UNL1        0.0213
      3 C         143.2766  137.7023  160.4539 C.3     1  UNL1        0.0213
      4 C         142.6838  138.4658  159.3069 C.3     1  UNL1        0.0719
      5 C         141.5896  139.4614  159.5542 C.3     1  UNL1        0.0213
      6 C         141.0880  139.6936  160.9487 C.3     1  UNL1        0.0213
      7 C         141.8217  140.2066  164.3542 C.2     1  UNL1        0.2460
      8 O         142.9659  141.0187  163.8238 O.2     1  UNL1       -0.2701
      9 N         141.1792  139.1623  163.4902 N.am    1  UNL1       -0.3025
     10 H         140.4282  138.6293  163.8384 H       1  UNL1        0.1497
     11 C         139.5988  139.9474  167.6316 C.ar    1  UNL1        0.1419
     12 C         140.3169  140.9032  168.5376 C.ar    1  UNL1        0.0738
     13 C         141.5367  141.6268  168.0491 C.ar    1  UNL1        0.1419
     14 C         142.0383  141.3946  166.6547 C.ar    1  UNL1        0.0416
     15 C         141.3201  140.4388  165.7487 C.ar    1  UNL1        0.0594
     16 C         140.1004  139.7152  166.2372 C.ar    1  UNL1        0.0416
     17 C         137.5524  138.4167  167.1635 C.3     1  UNL1        0.2525
     18 O         138.3790  139.2238  168.1201 O.3     1  UNL1       -0.4713
     19 O         142.2548  142.5826  168.9551 O.3     1  UNL1       -0.4713
     20 C         143.4775  142.1349  169.6999 C.3     1  UNL1        0.2525
     21 N         143.1854  138.2336  157.9124 N.pl3   1  UNL1       -0.3046
     22 H         143.8758  138.8240  157.5328 H       1  UNL1        0.1496
     23 C         142.6352  137.1018  157.0961 C.ar    1  UNL1        0.2177
     24 N         141.5739  137.3644  156.0692 N.ar    1  UNL1       -0.2181
     25 C         141.0236  136.2326  155.2530 C.ar    1  UNL1        0.0650
     26 C         139.9623  136.4952  154.2261 C.3     1  UNL1        0.0523
     27 C         141.5348  134.8381  155.4637 C.ar    1  UNL1        0.0492
     28 C         142.5961  134.5755  156.4906 C.ar    1  UNL1        0.1359
     29 N         143.1463  135.7074  157.3069 N.ar    1  UNL1       -0.1989
     30 N         143.1072  133.1812  156.7014 N.pl3   1  UNL1       -0.2896
     31 C         144.3421  132.9509  157.5212 C.3     1  UNL1        0.1136
     32 C         142.3835  132.0170  156.0923 C.3     1  UNL1        0.1136
@<TRIPOS>BOND
     1    17    18    1
     2    18    11    1
     3    11    12   ar
     4    12    13   ar
     5    13    19    1
     6    19    20    1
     7    13    14   ar
     8    14    15   ar
     9    15     7    1
    10     7     8    2
    11     7     9   am
    12     1     9    1
    13     1     2    1
    14     2     3    1
    15     3     4    1
    16     4    21    1
    17    21    23    1
    18    23    24   ar
    19    24    25   ar
    20    25    26    1
    21    25    27   ar
    22    27    28   ar
    23    28    30    1
    24    30    31    1
    25    30    32    1
    26    28    29   ar
    27     4     5    1
    28     5     6    1
    29    15    16   ar
    30    16    11   ar
    31     6     1    1
    32    29    23   ar
    33     9    10    1
    34    21    22    1
@<TRIPOS>MOLECULE
*****
 32 34 0 0 0
SMALL
GASTEIGER

@<TRIPOS>ATOM
      1 C         142.0102  138.6626  162.3049 C.3     1  UNL1        0.0720
      2 C         143.4531  138.7798  161.9120 C.3     1  UNL1        0.0213
      3 C         143.8476  138.6805  160.4683 C.3     1  UNL1        0.0213
      4 C         142.7994  138.4640  159.4175 C.3     1  UNL1        0.0719
      5 C         141.3565  138.3468  159.8104 C.3     1  UNL1        0.0213
      6 C         140.9620  138.4461  161.2541 C.3     1  UNL1        0.0213
      7 C         141.0388  140.0396  164.2824 C.2     1  UNL1        0.2460
      8 O         140.8567  141.2180  163.3724 O.2     1  UNL1       -0.2701
      9 N         141.6156  138.7619  163.7487 N.am    1  UNL1       -0.3025
     10 H         141.7351  137.9885  164.3460 H       1  UNL1        0.1497
     11 C         141.1035  141.0132  168.1292 C.ar    1  UNL1        0.1419
     12 C         139.8550  140.3376  168.6137 C.ar    1  UNL1        0.0738
     13 C         139.0011  139.5626  167.6543 C.ar    1  UNL1        0.1419
     14 C         139.3957  139.4633  166.2106 C.ar    1  UNL1        0.0416
     15 C         140.6442  140.1389  165.7262 C.ar    1  UNL1        0.0594
     16 C         141.4981  140.9139  166.6855 C.ar    1  UNL1        0.0416
     17 C         143.1330  141.1293  169.7472 C.3     1  UNL1        0.2525
     18 O         141.9574  141.7882  169.0885 O.3     1  UNL1       -0.4713
     19 O         137.7525  138.8869  168.1388 O.3     1  UNL1       -0.4713
     20 C         137.1566  137.7582  167.3510 C.3     1  UNL1        0.2525
     21 N         143.1940  138.3647  157.9737 N.pl3   1  UNL1       -0.3046
     22 H         143.7940  139.0387  157.5799 H       1  UNL1        0.1496
     23 C         142.6746  137.2386  157.1299 C.ar    1  UNL1        0.2177
     24 N         141.6697  137.5120  156.0503 N.ar    1  UNL1       -0.2181
     25 C         141.1502  136.3859  155.2066 C.ar    1  UNL1        0.0650
     26 C         140.1453  136.6593  154.1270 C.3     1  UNL1        0.0523
     27 C         141.6356  134.9863  155.4424 C.ar    1  UNL1        0.0492
     28 C         142.6405  134.7129  156.5219 C.ar    1  UNL1        0.1359
     29 N         143.1600  135.8391  157.3657 N.ar    1  UNL1       -0.1989
     30 N         143.1259  133.3134  156.7577 N.pl3   1  UNL1       -0.2896
     31 C         144.3215  133.0713  157.6307 C.3     1  UNL1        0.1136
     32 C         142.4157  132.1559  156.1207 C.3     1  UNL1        0.1136
@<TRIPOS>BOND
     1    17    18    1
     2    18    11    1
     3    11    12   ar
     4    12    13   ar
     5    13    19    1
     6    19    20    1
     7    13    14   ar
     8    14    15   ar
     9    15     7    1
    10     7     8    2
    11     7     9   am
    12     1     9    1
    13     1     2    1
    14     2     3    1
    15     3     4    1
    16     4    21    1
    17    21    23    1
    18    23    24   ar
    19    24    25   ar
    20    25    26    1
    21    25    27   ar
    22    27    28   ar
    23    28    30    1
    24    30    31    1
    25    30    32    1
    26    28    29   ar
    27     4     5    1
    28     5     6    1
    29    15    16   ar
    30    16    11   ar
    31     6     1    1
    32    29    23   ar
    33     9    10    1
    34    21    22    1
@<TRIPOS>MOLECULE
*****
 32 34 0 0 0
SMALL
GASTEIGER

@<TRIPOS>ATOM
      1 C         140.7178  138.6633  158.7055 C.3     1  UNL1        0.0720
      2 C         142.1597  138.2521  158.7454 C.3     1  UNL1        0.0213
      3 C         142.7011  137.3141  157.7076 C.3     1  UNL1        0.0213
      4 C         141.8005  136.7873  156.6299 C.3     1  UNL1        0.0719
      5 C         140.3585  137.1984  156.5900 C.3     1  UNL1        0.0213
      6 C         139.8172  138.1364  157.6278 C.3     1  UNL1        0.0213
      7 C         139.5080  139.0568  160.9708 C.2     1  UNL1        0.2460
      8 O         139.3810  137.5743  161.1605 O.2     1  UNL1       -0.2701
      9 N         140.1763  139.6013  159.7433 N.am    1  UNL1       -0.3025
     10 H         140.2597  140.5743  159.6188 H       1  UNL1        0.1497
     11 C         138.2079  140.4529  164.4509 C.ar    1  UNL1        0.1419
     12 C         137.8837  141.8708  164.0842 C.ar    1  UNL1        0.0738
     13 C         138.1009  142.3507  162.6798 C.ar    1  UNL1        0.1419
     14 C         138.6423  141.4127  161.6420 C.ar    1  UNL1        0.0416
     15 C         138.9665  139.9949  162.0086 C.ar    1  UNL1        0.0594
     16 C         138.7493  139.5149  163.4131 C.ar    1  UNL1        0.0416
     17 C         139.1638  139.7654  166.7668 C.3     1  UNL1        0.2525
     18 O         137.9908  139.9730  165.8553 O.3     1  UNL1       -0.4713
     19 O         137.7767  143.7686  162.3131 O.3     1  UNL1       -0.4713
     20 C         138.7145  144.8753  162.6951 C.3     1  UNL1        0.2525
     21 N         142.3419  135.8492  155.5921 N.pl3   1  UNL1       -0.3046
     22 H         142.4696  136.1597  154.6666 H       1  UNL1        0.1496
     23 C         142.6888  134.4382  155.9644 C.ar    1  UNL1        0.2177
     24 N         143.8580  134.1656  156.8636 N.ar    1  UNL1       -0.2181
     25 C         144.2048  132.7546  157.2359 C.ar    1  UNL1        0.0650
     26 C         145.3740  132.4820  158.1352 C.3     1  UNL1        0.0523
     27 C         143.3825  131.6161  156.7090 C.ar    1  UNL1        0.0492
     28 C         142.2133  131.8887  155.8097 C.ar    1  UNL1        0.1359
     29 N         141.8665  133.2998  155.4374 N.ar    1  UNL1       -0.1989
     30 N         141.3910  130.7503  155.2827 N.pl3   1  UNL1       -0.2896
     31 C         140.1241  131.0263  154.5284 C.3     1  UNL1        0.1136
     32 C         141.8354  129.3358  155.5101 C.3     1  UNL1        0.1136
@<TRIPOS>BOND
     1    17    18    1
     2    18    11    1
     3    11    12   ar
     4    12    13   ar
     5    13    19    1
     6    19    20    1
     7    13    14   ar
     8    14    15   ar
     9    15     7    1
    10     7     8    2
    11     7     9   am
    12     1     9    1
    13     1     2    1
    14     2     3    1
    15     3     4    1
    16     4    21    1
    17    21    23    1
    18    23    24   ar
    19    24    25   ar
    20    25    26    1
    21    25    27   ar
    22    27    28   ar
    23    28    30    1
    24    30    31    1
    25    30    32    1
    26    28    29   ar
    27     4     5    1
    28     5     6    1
    29    15    16   ar
    30    16    11   ar
    31     6     1    1
    32    29    23   ar
    33     9    10    1
    34    21    22    1
@<TRIPOS>MOLECULE
*****
 32 34 0 0 0
SMALL
GASTEIGER

@<TRIPOS>ATOM
      1 C         141.4550  145.0244  161.0512 C.3     1  UNL1        0.0720
      2 C         142.4464  143.9763  161.4616 C.3     1  UNL1        0.0213
      3 C         142.4160  143.4194  162.8540 C.3     1  UNL1        0.0213
      4 C         141.3941  143.9107  163.8361 C.3     1  UNL1        0.0719
      5 C         140.4027  144.9588  163.4257 C.3     1  UNL1        0.0213
      6 C         140.4331  145.5156  162.0333 C.3     1  UNL1        0.0213
      7 C         140.4978  145.1008  158.6371 C.2     1  UNL1        0.2460
      8 O         139.4798  144.0635  159.0079 O.2     1  UNL1       -0.2701
      9 N         141.4854  145.5813  159.6587 N.am    1  UNL1       -0.3025
     10 H         142.1535  146.2622  159.4154 H       1  UNL1        0.1497
     11 C         141.4825  145.6244  154.8284 C.ar    1  UNL1        0.1419
     12 C         140.5890  146.7715  154.4597 C.ar    1  UNL1        0.0738
     13 C         139.6652  147.3617  155.4835 C.ar    1  UNL1        0.1419
     14 C         139.6347  146.8048  156.8759 C.ar    1  UNL1        0.0416
     15 C         140.5282  145.6578  157.2446 C.ar    1  UNL1        0.0594
     16 C         141.4521  145.0676  156.2208 C.ar    1  UNL1        0.0416
     17 C         143.0260  145.9127  152.7585 C.3     1  UNL1        0.2525
     18 O         142.4064  145.0342  153.8046 O.3     1  UNL1       -0.4713
     19 O         138.7717  148.5088  155.1148 O.3     1  UNL1       -0.4713
     20 C         138.5073  149.6024  156.1067 C.3     1  UNL1        0.2525
     21 N         141.3637  143.3537  165.2286 N.pl3   1  UNL1       -0.3046
     22 H         141.8128  143.8346  165.9610 H       1  UNL1        0.1496
     23 C         140.6492  142.0642  165.5052 C.ar    1  UNL1        0.2177
     24 N         140.3547  141.6582  166.9189 N.ar    1  UNL1       -0.2181
     25 C         139.6401  140.3687  167.1955 C.ar    1  UNL1        0.0650
     26 C         139.3456  139.9627  168.6091 C.3     1  UNL1        0.0523
     27 C         139.2200  139.4852  166.0584 C.ar    1  UNL1        0.0492
     28 C         139.5145  139.8912  164.6447 C.ar    1  UNL1        0.1359
     29 N         140.2291  141.1807  164.3681 N.ar    1  UNL1       -0.1989
     30 N         139.0945  139.0077  163.5077 N.pl3   1  UNL1       -0.2896
     31 C         139.7532  137.6744  163.3108 C.3     1  UNL1        0.1136
     32 C         138.0158  139.4573  162.5674 C.3     1  UNL1        0.1136
@<TRIPOS>BOND
     1    17    18    1
     2    18    11    1
     3    11    12   ar
     4    12    13   ar
     5    13    19    1
     6    19    20    1
     7    13    14   ar
     8    14    15   ar
     9    15     7    1
    10     7     8    2
    11     7     9   am
    12     1     9    1
    13     1     2    1
    14     2     3    1
    15     3     4    1
    16     4    21    1
    17    21    23    1
    18    23    24   ar
    19    24    25   ar
    20    25    26    1
    21    25    27   ar
    22    27    28   ar
    23    28    30    1
    24    30    31    1
    25    30    32    1
    26    28    29   ar
    27     4     5    1
    28     5     6    1
    29    15    16   ar
    30    16    11   ar
    31     6     1    1
    32    29    23   ar
    33     9    10    1
    34    21    22    1
@<TRIPOS>MOLECULE
*****
 32 34 0 0 0
SMALL
GASTEIGER

@<TRIPOS>ATOM
      1 C         140.9618  143.7866  163.1979 C.3     1  UNL1        0.0720
      2 C         141.9904  143.2376  162.2543 C.3     1  UNL1        0.0213
      3 C         142.1918  143.8743  160.9113 C.3     1  UNL1        0.0213
      4 C         141.3647  145.0602  160.5118 C.3     1  UNL1        0.0719
      5 C         140.3361  145.6093  161.4554 C.3     1  UNL1        0.0213
      6 C         140.1346  144.9725  162.7985 C.3     1  UNL1        0.0213
      7 C         139.9698  141.8805  164.6583 C.2     1  UNL1        0.2460
      8 O         139.3807  141.2479  163.4324 O.2     1  UNL1       -0.2701
      9 N         140.7603  143.1499  164.5411 N.am    1  UNL1       -0.3025
     10 H         141.1469  143.5651  165.3457 H       1  UNL1        0.1497
     11 C         138.5903  139.4791  167.5009 C.ar    1  UNL1        0.1419
     12 C         139.3653  139.9702  168.6876 C.ar    1  UNL1        0.0738
     13 C         140.3417  141.0981  168.5312 C.ar    1  UNL1        0.1419
     14 C         140.5432  141.7349  167.1882 C.ar    1  UNL1        0.0416
     15 C         139.7683  141.2437  166.0015 C.ar    1  UNL1        0.0594
     16 C         138.7918  140.1159  166.1579 C.ar    1  UNL1        0.0416
     17 C         137.6035  137.2253  166.6662 C.3     1  UNL1        0.2525
     18 O         137.6139  138.3512  167.6573 O.3     1  UNL1       -0.4713
     19 O         141.1166  141.5892  169.7180 O.3     1  UNL1       -0.4713
     20 C         140.8209  141.0451  171.0842 C.3     1  UNL1        0.2525
     21 N         141.5662  145.6970  159.1686 N.pl3   1  UNL1       -0.3046
     22 H         142.3182  146.3159  159.0251 H       1  UNL1        0.1496
     23 C         140.6219  145.3907  158.0442 C.ar    1  UNL1        0.2177
     24 N         140.2229  146.4720  157.0842 N.ar    1  UNL1       -0.2181
     25 C         139.2786  146.1657  155.9597 C.ar    1  UNL1        0.0650
     26 C         138.8797  147.2470  154.9997 C.3     1  UNL1        0.0523
     27 C         138.7333  144.7780  155.7952 C.ar    1  UNL1        0.0492
     28 C         139.1323  143.6966  156.7551 C.ar    1  UNL1        0.1359
     29 N         140.0766  144.0030  157.8797 N.ar    1  UNL1       -0.1989
     30 N         138.5870  142.3090  156.5907 N.pl3   1  UNL1       -0.2896
     31 C         139.5238  141.1413  156.4963 C.3     1  UNL1        0.1136
     32 C         137.1049  142.0890  156.5206 C.3     1  UNL1        0.1136
@<TRIPOS>BOND
     1    17    18    1
     2    18    11    1
     3    11    12   ar
     4    12    13   ar
     5    13    19    1
     6    19    20    1
     7    13    14   ar
     8    14    15   ar
     9    15     7    1
    10     7     8    2
    11     7     9   am
    12     1     9    1
    13     1     2    1
    14     2     3    1
    15     3     4    1
    16     4    21    1
    17    21    23    1
    18    23    24   ar
    19    24    25   ar
    20    25    26    1
    21    25    27   ar
    22    27    28   ar
    23    28    30    1
    24    30    31    1
    25    30    32    1
    26    28    29   ar
    27     4     5    1
    28     5     6    1
    29    15    16   ar
    30    16    11   ar
    31     6     1    1
    32    29    23   ar
    33     9    10    1
    34    21    22    1
@<TRIPOS>MOLECULE
*****
 32 34 0 0 0
SMALL
GASTEIGER

@<TRIPOS>ATOM
      1 C         141.7929  144.7740  161.2284 C.3     1  UNL1        0.0720
      2 C         141.0399  145.3672  162.3821 C.3     1  UNL1        0.0213
      3 C         141.1766  144.7724  163.7523 C.3     1  UNL1        0.0213
      4 C         142.0663  143.5842  163.9687 C.3     1  UNL1        0.0719
      5 C         142.8192  142.9910  162.8150 C.3     1  UNL1        0.0213
      6 C         142.6825  143.5859  161.4449 C.3     1  UNL1        0.0213
      7 C         140.4797  145.0112  158.9992 C.2     1  UNL1        0.2460
      8 O         139.4398  144.0586  159.5104 O.2     1  UNL1       -0.2701
      9 N         141.6562  145.3689  159.8581 N.am    1  UNL1       -0.3025
     10 H         142.3387  145.9941  159.5226 H       1  UNL1        0.1497
     11 C         139.3533  147.4172  156.0508 C.ar    1  UNL1        0.1419
     12 C         140.0696  146.7958  154.8886 C.ar    1  UNL1        0.0738
     13 C         140.9225  145.5796  155.0965 C.ar    1  UNL1        0.1419
     14 C         141.0593  144.9847  156.4667 C.ar    1  UNL1        0.0416
     15 C         140.3430  145.6061  157.6289 C.ar    1  UNL1        0.0594
     16 C         139.4900  146.8223  157.4210 C.ar    1  UNL1        0.0416
     17 C         138.3589  149.6467  156.9398 C.3     1  UNL1        0.2525
     18 O         138.5004  148.6334  155.8429 O.3     1  UNL1       -0.4713
     19 O         141.6388  144.9582  153.9342 O.3     1  UNL1       -0.4713
     20 C         141.0048  144.9598  152.5748 C.3     1  UNL1        0.2525
     21 N         142.2030  142.9894  165.3390 N.pl3   1  UNL1       -0.3046
     22 H         142.9490  143.2607  165.9212 H       1  UNL1        0.1496
     23 C         141.2030  141.9811  165.8220 C.ar    1  UNL1        0.2177
     24 N         140.2335  141.3648  164.8576 N.ar    1  UNL1       -0.2181
     25 C         139.2335  140.3565  165.3406 C.ar    1  UNL1        0.0650
     26 C         138.2640  139.7402  164.3762 C.3     1  UNL1        0.0523
     27 C         139.2030  139.9645  166.7882 C.ar    1  UNL1        0.0492
     28 C         140.1725  140.5808  167.7527 C.ar    1  UNL1        0.1359
     29 N         141.1725  141.5891  167.2696 N.ar    1  UNL1       -0.1989
     30 N         140.1421  140.1889  169.2002 N.pl3   1  UNL1       -0.2896
     31 C         141.3780  139.6496  169.8574 C.3     1  UNL1        0.1136
     32 C         138.8757  140.3361  169.9906 C.3     1  UNL1        0.1136
@<TRIPOS>BOND
     1    17    18    1
     2    18    11    1
     3    11    12   ar
     4    12    13   ar
     5    13    19    1
     6    19    20    1
     7    13    14   ar
     8    14    15   ar
     9    15     7    1
    10     7     8    2
    11     7     9   am
    12     1     9    1
    13     1     2    1
    14     2     3    1
    15     3     4    1
    16     4    21    1
    17    21    23    1
    18    23    24   ar
    19    24    25   ar
    20    25    26    1
    21    25    27   ar
    22    27    28   ar
    23    28    30    1
    24    30    31    1
    25    30    32    1
    26    28    29   ar
    27     4     5    1
    28     5     6    1
    29    15    16   ar
    30    16    11   ar
    31     6     1    1
    32    29    23   ar
    33     9    10    1
    34    21    22    1
@<TRIPOS>MOLECULE
*****
 32 34 0 0 0
SMALL
GASTEIGER

@<TRIPOS>ATOM
      1 C         140.9104  143.1421  162.6018 C.3     1  UNL1        0.0720
      2 C         141.9116  142.6566  161.5959 C.3     1  UNL1        0.0213
      3 C         142.1458  143.4348  160.3351 C.3     1  UNL1        0.0213
      4 C         141.3789  144.6985  160.0803 C.3     1  UNL1        0.0719
      5 C         140.3778  145.1840  161.0863 C.3     1  UNL1        0.0213
      6 C         140.1435  144.4058  162.3470 C.3     1  UNL1        0.0213
      7 C         141.6122  142.5185  165.0243 C.2     1  UNL1        0.2460
      8 O         142.7827  143.4514  164.9254 O.2     1  UNL1       -0.2701
      9 N         140.6761  142.3638  163.8626 N.am    1  UNL1       -0.3025
     10 H         139.9079  141.7515  163.9276 H       1  UNL1        0.1497
     11 C         142.1461  141.0201  168.6603 C.ar    1  UNL1        0.1419
     12 C         140.9094  140.1840  168.8067 C.ar    1  UNL1        0.0738
     13 C         139.9070  140.1261  167.6923 C.ar    1  UNL1        0.1419
     14 C         140.1412  140.9042  166.4316 C.ar    1  UNL1        0.0416
     15 C         141.3779  141.7403  166.2852 C.ar    1  UNL1        0.0594
     16 C         142.3804  141.7983  167.3995 C.ar    1  UNL1        0.0416
     17 C         143.9460  142.3280  170.0018 C.3     1  UNL1        0.2525
     18 O         143.1486  141.0780  169.7746 O.3     1  UNL1       -0.4713
     19 O         138.6703  139.2899  167.8388 O.3     1  UNL1       -0.4713
     20 C         137.9353  138.8179  166.6193 C.3     1  UNL1        0.2525
     21 N         141.6132  145.4767  158.8195 N.pl3   1  UNL1       -0.3046
     22 H         142.4311  146.0154  158.7184 H       1  UNL1        0.1496
     23 C         140.6015  145.4341  157.7129 C.ar    1  UNL1        0.2177
     24 N         140.2487  146.6889  156.9706 N.ar    1  UNL1       -0.2181
     25 C         139.2370  146.6464  155.8640 C.ar    1  UNL1        0.0650
     26 C         138.8842  147.9011  155.1217 C.3     1  UNL1        0.0523
     27 C         138.5781  145.3490  155.4997 C.ar    1  UNL1        0.0492
     28 C         138.9309  144.0942  156.2420 C.ar    1  UNL1        0.1359
     29 N         139.9427  144.1368  157.3487 N.ar    1  UNL1       -0.1989
     30 N         138.2720  142.7968  155.8777 N.pl3   1  UNL1       -0.2896
     31 C         136.7779  142.7186  155.7705 C.3     1  UNL1        0.1136
     32 C         139.1072  141.5777  155.6207 C.3     1  UNL1        0.1136
@<TRIPOS>BOND
     1    17    18    1
     2    18    11    1
     3    11    12   ar
     4    12    13   ar
     5    13    19    1
     6    19    20    1
     7    13    14   ar
     8    14    15   ar
     9    15     7    1
    10     7     8    2
    11     7     9   am
    12     1     9    1
    13     1     2    1
    14     2     3    1
    15     3     4    1
    16     4    21    1
    17    21    23    1
    18    23    24   ar
    19    24    25   ar
    20    25    26    1
    21    25    27   ar
    22    27    28   ar
    23    28    30    1
    24    30    31    1
    25    30    32    1
    26    28    29   ar
    27     4     5    1
    28     5     6    1
    29    15    16   ar
    30    16    11   ar
    31     6     1    1
    32    29    23   ar
    33     9    10    1
    34    21    22    1
@<TRIPOS>MOLECULE
*****
 32 34 0 0 0
SMALL
GASTEIGER

@<TRIPOS>ATOM
      1 C         140.0226  145.2030  161.9764 C.3     1  UNL1        0.0720
      2 C         141.2553  145.1039  162.8252 C.3     1  UNL1        0.0213
      3 C         141.1625  144.5665  164.2226 C.3     1  UNL1        0.0213
      4 C         139.8369  144.1282  164.7710 C.3     1  UNL1        0.0719
      5 C         138.6042  144.2273  163.9222 C.3     1  UNL1        0.0213
      6 C         138.6970  144.7647  162.5249 C.3     1  UNL1        0.0213
      7 C         140.5121  144.8341  159.4517 C.2     1  UNL1        0.2460
      8 O         140.8161  143.3902  159.7216 O.2     1  UNL1       -0.2701
      9 N         140.1153  145.7405  160.5790 N.am    1  UNL1       -0.3025
     10 H         139.9158  146.6881  160.4018 H       1  UNL1        0.1497
     11 C         139.7158  146.9391  156.1829 C.ar    1  UNL1        0.1419
     12 C         140.7904  146.4464  155.2597 C.ar    1  UNL1        0.0738
     13 C         141.7722  145.4162  155.7337 C.ar    1  UNL1        0.1419
     14 C         141.6795  144.8788  157.1310 C.ar    1  UNL1        0.0416
     15 C         140.6049  145.3715  158.0543 C.ar    1  UNL1        0.0594
     16 C         139.6231  146.4017  157.5802 C.ar    1  UNL1        0.0416
     17 C         139.2077  149.1414  154.9015 C.3     1  UNL1        0.2525
     18 O         138.7340  147.9693  155.7089 O.3     1  UNL1       -0.4713
     19 O         142.8468  144.9234  154.8104 O.3     1  UNL1       -0.4713
     20 C         143.3773  143.5278  154.9542 C.3     1  UNL1        0.2525
     21 N         139.7441  143.5908  166.1684 N.pl3   1  UNL1       -0.3046
     22 H         139.1382  144.0134  166.8192 H       1  UNL1        0.1496
     23 C         140.5746  142.4094  166.5743 C.ar    1  UNL1        0.2177
     24 N         140.6360  141.1974  165.6927 N.ar    1  UNL1       -0.2181
     25 C         141.4664  140.0161  166.0986 C.ar    1  UNL1        0.0650
     26 C         141.5278  138.8040  165.2170 C.3     1  UNL1        0.0523
     27 C         142.2355  140.0467  167.3862 C.ar    1  UNL1        0.0492
     28 C         142.1741  141.2588  168.2677 C.ar    1  UNL1        0.1359
     29 N         141.3436  142.4401  167.8618 N.ar    1  UNL1       -0.1989
     30 N         142.9431  141.2895  169.5552 N.pl3   1  UNL1       -0.2896
     31 C         142.7202  140.2242  170.5875 C.3     1  UNL1        0.1136
     32 C         143.9349  142.3854  169.8104 C.3     1  UNL1        0.1136
@<TRIPOS>BOND
     1    17    18    1
     2    18    11    1
     3    11    12   ar
     4    12    13   ar
     5    13    19    1
     6    19    20    1
     7    13    14   ar
     8    14    15   ar
     9    15     7    1
    10     7     8    2
    11     7     9   am
    12     1     9    1
    13     1     2    1
    14     2     3    1
    15     3     4    1
    16     4    21    1
    17    21    23    1
    18    23    24   ar
    19    24    25   ar
    20    25    26    1
    21    25    27   ar
    22    27    28   ar
    23    28    30    1
    24    30    31    1
    25    30    32    1
    26    28    29   ar
    27     4     5    1
    28     5     6    1
    29    15    16   ar
    30    16    11   ar
    31     6     1    1
    32    29    23   ar
    33     9    10    1
    34    21    22    1
