@<TRIPOS>MOLECULE
*****
 37 41 0 0 0
SMALL
GASTEIGER

@<TRIPOS>ATOM
      1 C         141.8774  142.8970  161.1201 C.ar    1  UNL1        0.0104
      2 C         141.9200  143.6532  159.8254 C.ar    1  UNL1        0.0078
      3 C         141.1263  144.9162  159.6680 C.ar    1  UNL1        0.1095
      4 C         140.2899  145.4231  160.8053 C.ar    1  UNL1        0.2691
      5 O         139.4962  146.6861  160.6479 O.2     1  UNL1       -0.2665
      6 N         140.2473  144.6669  162.1002 N.ar    1  UNL1       -0.2733
      7 C         139.4110  145.1738  163.2375 C.ar    1  UNL1        0.0829
      8 C         139.3684  144.4177  164.5322 C.ar    1  UNL1        0.0191
      9 C         140.1621  143.1547  164.6896 C.ar    1  UNL1        0.0030
     10 C         140.9984  142.6478  163.5523 C.ar    1  UNL1        0.0174
     11 C         141.0410  143.4039  162.2576 C.ar    1  UNL1        0.0642
     12 C         141.1689  145.6723  158.3732 C.2     1  UNL1        0.2505
     13 O         142.4638  146.2510  157.8849 O.2     1  UNL1       -0.2700
     14 N         139.9167  145.8498  157.5667 N.am    1  UNL1       -0.3000
     15 H         139.0668  145.4700  157.8871 H       1  UNL1        0.1498
     16 C         139.9594  146.6059  156.2719 C.3     1  UNL1        0.0986
     17 C         140.7006  146.0400  155.0970 C.3     1  UNL1        0.0220
     18 C         140.7433  146.7961  153.8022 C.3     1  UNL1        0.0019
     19 C         140.0447  148.1181  153.6823 C.3     1  UNL1        0.0026
     20 C         139.3036  148.6840  154.8572 C.3     1  UNL1        0.0309
     21 C         139.2608  147.9279  156.1520 C.3     1  UNL1        0.1283
     22 O         138.5196  148.4938  157.3269 O.3     1  UNL1       -0.3828
     23 H         138.1290  149.3473  157.0822 H       1  UNL1        0.2104
     24 C         142.6711  141.6340  161.2775 C.3     1  UNL1        0.1007
     25 N         142.5364  138.4778  158.0728 N.pl3   1  UNL1       -0.2904
     26 C         141.6346  138.3732  159.2669 C.3     1  UNL1        0.1095
     27 C         141.6795  139.4252  160.3351 C.3     1  UNL1        0.0941
     28 N         142.6262  140.5819  160.2093 N.3     1  UNL1       -0.2659
     29 C         143.5280  140.6866  159.0152 C.3     1  UNL1        0.0941
     30 C         143.4831  139.6344  157.9470 C.3     1  UNL1        0.1095
     31 C         142.3569  134.2696  153.7998 C.3     1  UNL1        0.0327
     32 C         142.4018  135.3216  154.8680 C.ar    1  UNL1       -0.0026
     33 C         141.1258  135.8802  155.4246 C.ar    1  UNL1        0.0001
     34 C         141.1706  136.9323  156.4929 C.ar    1  UNL1        0.0340
     35 C         142.4915  137.4258  157.0046 C.ar    1  UNL1        0.1317
     36 N         143.7675  136.8671  156.4480 N.ar    1  UNL1       -0.2295
     37 C         143.7227  135.8150  155.3798 C.ar    1  UNL1        0.0960
@<TRIPOS>BOND
     1    31    32    1
     2    32    33   ar
     3    33    34   ar
     4    34    35   ar
     5    35    25    1
     6    25    26    1
     7    26    27    1
     8    27    28    1
     9    28    24    1
    10    24     1    1
    11     1     2   ar
    12     2     3   ar
    13     3    12    1
    14    12    13    2
    15    12    14   am
    16    16    14    1
    17    16    17    1
    18    17    18    1
    19    18    19    1
    20    19    20    1
    21    20    21    1
    22    21    22    1
    23     3     4   ar
    24     4     5    2
    25     4     6   ar
    26     6     7   ar
    27     7     8   ar
    28     8     9   ar
    29     9    10   ar
    30    10    11   ar
    31    28    29    1
    32    29    30    1
    33    35    36   ar
    34    36    37   ar
    35    37    32   ar
    36    30    25    1
    37    11     1   ar
    38    21    16    1
    39    11     6   ar
    40    14    15    1
    41    22    23    1
@<TRIPOS>MOLECULE
*****
 37 41 0 0 0
SMALL
GASTEIGER

@<TRIPOS>ATOM
      1 C         141.2675  139.1353  157.3912 C.ar    1  UNL1        0.0104
      2 C         141.5801  137.6815  157.1947 C.ar    1  UNL1        0.0078
      3 C         142.8675  137.2727  156.5426 C.ar    1  UNL1        0.1095
      4 C         143.8424  138.3176  156.0869 C.ar    1  UNL1        0.2691
      5 O         145.1298  137.9088  155.4348 O.2     1  UNL1       -0.2665
      6 N         143.5298  139.7715  156.2834 N.ar    1  UNL1       -0.2733
      7 C         144.5047  140.8165  155.8277 C.ar    1  UNL1        0.0829
      8 C         144.1920  142.2703  156.0242 C.ar    1  UNL1        0.0191
      9 C         142.9046  142.6792  156.6763 C.ar    1  UNL1        0.0030
     10 C         141.9297  141.6342  157.1320 C.ar    1  UNL1        0.0174
     11 C         142.2423  140.1804  156.9355 C.ar    1  UNL1        0.0642
     12 C         143.1801  135.8187  156.3461 C.2     1  UNL1        0.2505
     13 O         143.4387  135.2868  154.9677 O.2     1  UNL1       -0.2700
     14 N         143.2341  134.8968  157.5281 N.am    1  UNL1       -0.3000
     15 H         143.0643  135.2459  158.4328 H       1  UNL1        0.1498
     16 C         143.5466  133.4430  157.3316 C.3     1  UNL1        0.0986
     17 C         144.7949  132.8577  157.9227 C.3     1  UNL1        0.0220
     18 C         145.1074  131.4038  157.7262 C.3     1  UNL1        0.0019
     19 C         144.1718  130.5353  156.9386 C.3     1  UNL1        0.0026
     20 C         142.9236  131.1206  156.3476 C.3     1  UNL1        0.0309
     21 C         142.6110  132.5745  156.5440 C.3     1  UNL1        0.1283
     22 O         141.3628  133.1598  155.9530 O.3     1  UNL1       -0.3828
     23 H         140.8745  132.4684  155.4792 H       1  UNL1        0.2104
     24 C         139.9800  139.5442  158.0433 C.3     1  UNL1        0.1007
     25 N         139.6912  139.7333  162.5300 N.pl3   1  UNL1       -0.2904
     26 C         140.2183  140.9091  161.7622 C.3     1  UNL1        0.1095
     27 C         140.3146  140.8461  160.2667 C.3     1  UNL1        0.0941
     28 N         139.8837  139.6072  159.5389 N.3     1  UNL1       -0.2659
     29 C         139.3566  138.4314  160.3067 C.3     1  UNL1        0.0941
     30 C         139.2604  138.4944  161.8023 C.3     1  UNL1        0.1095
     31 C         139.3061  139.9853  168.5123 C.3     1  UNL1        0.0327
     32 C         139.4024  139.9223  167.0168 C.ar    1  UNL1       -0.0026
     33 C         138.3673  139.1749  166.2295 C.ar    1  UNL1        0.0001
     34 C         138.4635  139.1119  164.7338 C.ar    1  UNL1        0.0340
     35 C         139.5949  139.7963  164.0256 C.ar    1  UNL1        0.1317
     36 N         140.6301  140.5437  164.8130 N.ar    1  UNL1       -0.2295
     37 C         140.5338  140.6067  166.3085 C.ar    1  UNL1        0.0960
@<TRIPOS>BOND
     1    31    32    1
     2    32    33   ar
     3    33    34   ar
     4    34    35   ar
     5    35    25    1
     6    25    26    1
     7    26    27    1
     8    27    28    1
     9    28    24    1
    10    24     1    1
    11     1     2   ar
    12     2     3   ar
    13     3    12    1
    14    12    13    2
    15    12    14   am
    16    16    14    1
    17    16    17    1
    18    17    18    1
    19    18    19    1
    20    19    20    1
    21    20    21    1
    22    21    22    1
    23     3     4   ar
    24     4     5    2
    25     4     6   ar
    26     6     7   ar
    27     7     8   ar
    28     8     9   ar
    29     9    10   ar
    30    10    11   ar
    31    28    29    1
    32    29    30    1
    33    35    36   ar
    34    36    37   ar
    35    37    32   ar
    36    30    25    1
    37    11     1   ar
    38    21    16    1
    39    11     6   ar
    40    14    15    1
    41    22    23    1
@<TRIPOS>MOLECULE
*****
 37 41 0 0 0
SMALL
GASTEIGER

@<TRIPOS>ATOM
      1 C         140.6966  138.7306  156.4274 C.ar    1  UNL1        0.0104
      2 C         141.6740  137.5989  156.5452 C.ar    1  UNL1        0.0078
      3 C         141.6032  136.4444  155.5902 C.ar    1  UNL1        0.1095
      4 C         140.5551  136.4215  154.5174 C.ar    1  UNL1        0.2691
      5 O         140.4843  135.2670  153.5624 O.2     1  UNL1       -0.2665
      6 N         139.5776  137.5533  154.3996 N.ar    1  UNL1       -0.2733
      7 C         138.5294  137.5304  153.3269 C.ar    1  UNL1        0.0829
      8 C         137.5520  138.6621  153.2092 C.ar    1  UNL1        0.0191
      9 C         137.6228  139.8166  154.1642 C.ar    1  UNL1        0.0030
     10 C         138.6709  139.8395  155.2369 C.ar    1  UNL1        0.0174
     11 C         139.6483  138.7078  155.3546 C.ar    1  UNL1        0.0642
     12 C         142.5807  135.3127  155.7080 C.2     1  UNL1        0.2505
     13 O         144.0539  135.5937  155.7329 O.2     1  UNL1       -0.2700
     14 N         142.0849  133.9001  155.8008 N.am    1  UNL1       -0.3000
     15 H         141.1180  133.7156  155.7844 H       1  UNL1        0.1498
     16 C         143.0624  132.7684  155.9185 C.3     1  UNL1        0.0986
     17 C         143.2374  131.8070  154.7805 C.3     1  UNL1        0.0220
     18 C         144.2149  130.6754  154.8983 C.3     1  UNL1        0.0019
     19 C         145.0174  130.5051  156.1541 C.3     1  UNL1        0.0026
     20 C         144.8424  131.4664  157.2921 C.3     1  UNL1        0.0309
     21 C         143.8649  132.5981  157.1743 C.3     1  UNL1        0.1283
     22 O         143.6899  133.5595  158.3123 O.3     1  UNL1       -0.3828
     23 H         144.2787  133.3084  159.0411 H       1  UNL1        0.2104
     24 C         140.7673  139.8852  157.3824 C.3     1  UNL1        0.1007
     25 N         139.4878  139.3463  161.6629 N.pl3   1  UNL1       -0.2904
     26 C         140.9425  139.4926  161.3277 C.3     1  UNL1        0.1095
     27 C         141.3690  139.6722  159.9009 C.3     1  UNL1        0.0941
     28 N         140.3408  139.7055  158.8092 N.3     1  UNL1       -0.2659
     29 C         138.8861  139.5592  159.1444 C.3     1  UNL1        0.0941
     30 C         138.4596  139.3795  160.5713 C.3     1  UNL1        0.1095
     31 C         137.7817  138.6277  167.3701 C.3     1  UNL1        0.0327
     32 C         138.2082  138.8074  165.9433 C.ar    1  UNL1       -0.0026
     33 C         138.7203  137.6349  165.1604 C.ar    1  UNL1        0.0001
     34 C         139.1469  137.8145  163.7335 C.ar    1  UNL1        0.0340
     35 C         139.0613  139.1666  163.0897 C.ar    1  UNL1        0.1317
     36 N         138.5491  140.3391  163.8727 N.ar    1  UNL1       -0.2295
     37 C         138.1226  140.1595  165.2995 C.ar    1  UNL1        0.0960
@<TRIPOS>BOND
     1    31    32    1
     2    32    33   ar
     3    33    34   ar
     4    34    35   ar
     5    35    25    1
     6    25    26    1
     7    26    27    1
     8    27    28    1
     9    28    24    1
    10    24     1    1
    11     1     2   ar
    12     2     3   ar
    13     3    12    1
    14    12    13    2
    15    12    14   am
    16    16    14    1
    17    16    17    1
    18    17    18    1
    19    18    19    1
    20    19    20    1
    21    20    21    1
    22    21    22    1
    23     3     4   ar
    24     4     5    2
    25     4     6   ar
    26     6     7   ar
    27     7     8   ar
    28     8     9   ar
    29     9    10   ar
    30    10    11   ar
    31    28    29    1
    32    29    30    1
    33    35    36   ar
    34    36    37   ar
    35    37    32   ar
    36    30    25    1
    37    11     1   ar
    38    21    16    1
    39    11     6   ar
    40    14    15    1
    41    22    23    1
@<TRIPOS>MOLECULE
*****
 37 41 0 0 0
SMALL
GASTEIGER

@<TRIPOS>ATOM
      1 C         143.0667  142.4349  161.6365 C.ar    1  UNL1        0.0104
      2 C         142.9382  142.0919  163.0911 C.ar    1  UNL1        0.0078
      3 C         141.9109  142.7841  163.9370 C.ar    1  UNL1        0.1095
      4 C         141.0122  143.8193  163.3283 C.ar    1  UNL1        0.2691
      5 O         139.9849  144.5116  164.1742 O.2     1  UNL1       -0.2665
      6 N         141.1407  144.1624  161.8737 N.ar    1  UNL1       -0.2733
      7 C         140.2420  145.1977  161.2650 C.ar    1  UNL1        0.0829
      8 C         140.3705  145.5407  159.8104 C.ar    1  UNL1        0.0191
      9 C         141.3978  144.8484  158.9646 C.ar    1  UNL1        0.0030
     10 C         142.2965  143.8132  159.5732 C.ar    1  UNL1        0.0174
     11 C         142.1680  143.4702  161.0278 C.ar    1  UNL1        0.0642
     12 C         141.7824  142.4410  165.3916 C.2     1  UNL1        0.2505
     13 O         143.0105  142.1762  166.2110 O.2     1  UNL1       -0.2700
     14 N         140.4257  142.3628  166.0267 N.am    1  UNL1       -0.3000
     15 H         139.6197  142.5366  165.4889 H       1  UNL1        0.1498
     16 C         140.2973  142.0198  167.4812 C.3     1  UNL1        0.0986
     17 C         140.4135  143.0967  168.5189 C.3     1  UNL1        0.0220
     18 C         140.2850  142.7537  169.9735 C.3     1  UNL1        0.0019
     19 C         140.0403  141.3337  170.3904 C.3     1  UNL1        0.0026
     20 C         139.9241  140.2568  169.3528 C.3     1  UNL1        0.0309
     21 C         140.0526  140.5998  167.8982 C.3     1  UNL1        0.1283
     22 O         139.9364  139.5229  166.8606 O.3     1  UNL1       -0.3828
     23 H         139.7800  138.6702  167.2957 H       1  UNL1        0.2104
     24 C         144.0940  141.7426  160.7906 C.3     1  UNL1        0.1007
     25 N         142.9065  138.2439  158.2218 N.pl3   1  UNL1       -0.2904
     26 C         142.9026  138.1127  159.7161 C.3     1  UNL1        0.1095
     27 C         143.2985  139.2790  160.5724 C.3     1  UNL1        0.0941
     28 N         143.6982  140.5764  159.9344 N.3     1  UNL1       -0.2659
     29 C         143.7020  140.7075  158.4401 C.3     1  UNL1        0.0941
     30 C         143.3062  139.5412  157.5839 C.3     1  UNL1        0.1095
     31 C         141.3233  133.5789  154.7968 C.3     1  UNL1        0.0327
     32 C         141.7191  134.7452  155.6530 C.ar    1  UNL1       -0.0026
     33 C         140.9935  136.0515  155.5230 C.ar    1  UNL1        0.0001
     34 C         141.3893  137.2178  156.3793 C.ar    1  UNL1        0.0340
     35 C         142.5107  137.0777  157.3656 C.ar    1  UNL1        0.1317
     36 N         143.2363  135.7713  157.4956 N.ar    1  UNL1       -0.2295
     37 C         142.8405  134.6050  156.6393 C.ar    1  UNL1        0.0960
@<TRIPOS>BOND
     1    31    32    1
     2    32    33   ar
     3    33    34   ar
     4    34    35   ar
     5    35    25    1
     6    25    26    1
     7    26    27    1
     8    27    28    1
     9    28    24    1
    10    24     1    1
    11     1     2   ar
    12     2     3   ar
    13     3    12    1
    14    12    13    2
    15    12    14   am
    16    16    14    1
    17    16    17    1
    18    17    18    1
    19    18    19    1
    20    19    20    1
    21    20    21    1
    22    21    22    1
    23     3     4   ar
    24     4     5    2
    25     4     6   ar
    26     6     7   ar
    27     7     8   ar
    28     8     9   ar
    29     9    10   ar
    30    10    11   ar
    31    28    29    1
    32    29    30    1
    33    35    36   ar
    34    36    37   ar
    35    37    32   ar
    36    30    25    1
    37    11     1   ar
    38    21    16    1
    39    11     6   ar
    40    14    15    1
    41    22    23    1
@<TRIPOS>MOLECULE
*****
 37 41 0 0 0
SMALL
GASTEIGER

@<TRIPOS>ATOM
      1 C         142.1894  138.1041  156.8966 C.ar    1  UNL1        0.0104
      2 C         141.2971  138.0184  158.0993 C.ar    1  UNL1        0.0078
      3 C         141.4870  138.9698  159.2433 C.ar    1  UNL1        0.1095
      4 C         142.5692  140.0068  159.1847 C.ar    1  UNL1        0.2691
      5 O         142.7591  140.9582  160.3287 O.2     1  UNL1       -0.2665
      6 N         143.4615  140.0925  157.9819 N.ar    1  UNL1       -0.2733
      7 C         144.5437  141.1295  157.9233 C.ar    1  UNL1        0.0829
      8 C         145.4359  141.2152  156.7206 C.ar    1  UNL1        0.0191
      9 C         145.2460  140.2638  155.5766 C.ar    1  UNL1        0.0030
     10 C         144.1639  139.2268  155.6352 C.ar    1  UNL1        0.0174
     11 C         143.2716  139.1411  156.8379 C.ar    1  UNL1        0.0642
     12 C         140.5947  138.8841  160.4461 C.2     1  UNL1        0.2505
     13 O         139.1333  138.5917  160.2763 O.2     1  UNL1       -0.2700
     14 N         141.1638  139.0909  161.8184 N.am    1  UNL1       -0.3000
     15 H         142.1229  139.2828  161.9298 H       1  UNL1        0.1498
     16 C         140.2715  139.0052  163.0210 C.3     1  UNL1        0.0986
     17 C         139.4355  140.1850  163.4203 C.3     1  UNL1        0.0220
     18 C         138.5432  140.0993  164.6229 C.3     1  UNL1        0.0019
     19 C         138.4867  138.8339  165.4263 C.3     1  UNL1        0.0026
     20 C         139.3227  137.6541  165.0271 C.3     1  UNL1        0.0309
     21 C         140.2150  137.7398  163.8245 C.3     1  UNL1        0.1283
     22 O         141.0509  136.5600  163.4253 O.3     1  UNL1       -0.3828
     23 H         140.8972  135.8301  164.0454 H       1  UNL1        0.2104
     24 C         141.9995  137.1527  155.7526 C.3     1  UNL1        0.1007
     25 N         142.6810  132.7455  156.3543 N.pl3   1  UNL1       -0.2904
     26 C         141.6155  133.2176  155.4099 C.3     1  UNL1        0.1095
     27 C         141.3884  134.6866  155.2093 C.3     1  UNL1        0.0941
     28 N         142.2267  135.6837  155.9532 N.3     1  UNL1       -0.2659
     29 C         143.2921  135.2116  156.8976 C.3     1  UNL1        0.0941
     30 C         143.5193  133.7424  157.0981 C.3     1  UNL1        0.1095
     31 C         143.5897  126.8693  157.1566 C.3     1  UNL1        0.0327
     32 C         143.3625  128.3383  156.9560 C.ar    1  UNL1       -0.0026
     33 C         144.2040  129.3352  157.6963 C.ar    1  UNL1        0.0001
     34 C         143.9768  130.8044  157.4957 C.ar    1  UNL1        0.0340
     35 C         142.9082  131.2765  156.5549 C.ar    1  UNL1        0.1317
     36 N         142.0667  130.2794  155.8146 N.ar    1  UNL1       -0.2295
     37 C         142.2939  128.8104  156.0151 C.ar    1  UNL1        0.0960
@<TRIPOS>BOND
     1    31    32    1
     2    32    33   ar
     3    33    34   ar
     4    34    35   ar
     5    35    25    1
     6    25    26    1
     7    26    27    1
     8    27    28    1
     9    28    24    1
    10    24     1    1
    11     1     2   ar
    12     2     3   ar
    13     3    12    1
    14    12    13    2
    15    12    14   am
    16    16    14    1
    17    16    17    1
    18    17    18    1
    19    18    19    1
    20    19    20    1
    21    20    21    1
    22    21    22    1
    23     3     4   ar
    24     4     5    2
    25     4     6   ar
    26     6     7   ar
    27     7     8   ar
    28     8     9   ar
    29     9    10   ar
    30    10    11   ar
    31    28    29    1
    32    29    30    1
    33    35    36   ar
    34    36    37   ar
    35    37    32   ar
    36    30    25    1
    37    11     1   ar
    38    21    16    1
    39    11     6   ar
    40    14    15    1
    41    22    23    1
@<TRIPOS>MOLECULE
*****
 37 41 0 0 0
SMALL
GASTEIGER

@<TRIPOS>ATOM
      1 C         142.1071  140.5134  157.4589 C.ar    1  UNL1        0.0104
      2 C         141.3178  140.8347  158.6933 C.ar    1  UNL1        0.0078
      3 C         141.9014  141.7316  159.7445 C.ar    1  UNL1        0.1095
      4 C         143.2744  142.3073  159.5613 C.ar    1  UNL1        0.2691
      5 O         143.8580  143.2042  160.6124 O.2     1  UNL1       -0.2665
      6 N         144.0638  141.9860  158.3268 N.ar    1  UNL1       -0.2733
      7 C         145.4367  142.5617  158.1436 C.ar    1  UNL1        0.0829
      8 C         146.2260  142.2404  156.9093 C.ar    1  UNL1        0.0191
      9 C         145.6424  141.3435  155.8581 C.ar    1  UNL1        0.0030
     10 C         144.2695  140.7678  156.0413 C.ar    1  UNL1        0.0174
     11 C         143.4802  141.0891  157.2757 C.ar    1  UNL1        0.0642
     12 C         141.1120  142.0529  160.9789 C.2     1  UNL1        0.2505
     13 O         140.7922  140.9709  161.9673 O.2     1  UNL1       -0.2700
     14 N         140.6425  143.4561  161.2248 N.am    1  UNL1       -0.3000
     15 H         140.8524  144.1663  160.5761 H       1  UNL1        0.1498
     16 C         139.8531  143.7773  162.4592 C.3     1  UNL1        0.0986
     17 C         140.5572  144.2386  163.7008 C.3     1  UNL1        0.0220
     18 C         139.7678  144.5598  164.9352 C.3     1  UNL1        0.0019
     19 C         138.2744  144.4198  164.9280 C.3     1  UNL1        0.0026
     20 C         137.5703  143.9585  163.6864 C.3     1  UNL1        0.0309
     21 C         138.3597  143.6373  162.4520 C.3     1  UNL1        0.1283
     22 O         137.6556  143.1761  161.2104 O.3     1  UNL1       -0.3828
     23 H         136.7003  143.1405  161.3748 H       1  UNL1        0.2104
     24 C         141.5235  139.6165  156.4078 C.3     1  UNL1        0.1007
     25 N         142.9614  135.3699  156.0221 N.pl3   1  UNL1       -0.2904
     26 C         142.4694  136.1079  154.8125 C.3     1  UNL1        0.1095
     27 C         141.9901  137.5234  154.9410 C.3     1  UNL1        0.0941
     28 N         142.0028  138.2010  156.2793 N.3     1  UNL1       -0.2659
     29 C         142.4948  137.4630  157.4889 C.3     1  UNL1        0.0941
     30 C         142.9741  136.0474  157.3603 C.3     1  UNL1        0.1095
     31 C         144.8786  129.7078  155.5080 C.3     1  UNL1        0.0327
     32 C         144.3993  131.1233  155.6365 C.ar    1  UNL1       -0.0026
     33 C         143.4977  131.7078  154.5899 C.ar    1  UNL1        0.0001
     34 C         143.0183  133.1234  154.7184 C.ar    1  UNL1        0.0340
     35 C         143.4407  133.9544  155.8936 C.ar    1  UNL1        0.1317
     36 N         144.3424  133.3699  156.9402 N.ar    1  UNL1       -0.2295
     37 C         144.8217  131.9544  156.8117 C.ar    1  UNL1        0.0960
@<TRIPOS>BOND
     1    31    32    1
     2    32    33   ar
     3    33    34   ar
     4    34    35   ar
     5    35    25    1
     6    25    26    1
     7    26    27    1
     8    27    28    1
     9    28    24    1
    10    24     1    1
    11     1     2   ar
    12     2     3   ar
    13     3    12    1
    14    12    13    2
    15    12    14   am
    16    16    14    1
    17    16    17    1
    18    17    18    1
    19    18    19    1
    20    19    20    1
    21    20    21    1
    22    21    22    1
    23     3     4   ar
    24     4     5    2
    25     4     6   ar
    26     6     7   ar
    27     7     8   ar
    28     8     9   ar
    29     9    10   ar
    30    10    11   ar
    31    28    29    1
    32    29    30    1
    33    35    36   ar
    34    36    37   ar
    35    37    32   ar
    36    30    25    1
    37    11     1   ar
    38    21    16    1
    39    11     6   ar
    40    14    15    1
    41    22    23    1
@<TRIPOS>MOLECULE
*****
 37 41 0 0 0
SMALL
GASTEIGER

@<TRIPOS>ATOM
      1 C         142.0530  139.4493  157.4751 C.ar    1  UNL1        0.0104
      2 C         142.8212  138.1907  157.1999 C.ar    1  UNL1        0.0078
      3 C         142.2292  137.1272  156.3232 C.ar    1  UNL1        0.1095
      4 C         140.8691  137.3224  155.7217 C.ar    1  UNL1        0.2691
      5 O         140.2771  136.2589  154.8449 O.2     1  UNL1       -0.2665
      6 N         140.1008  138.5811  155.9968 N.ar    1  UNL1       -0.2733
      7 C         138.7407  138.7762  155.3952 C.ar    1  UNL1        0.0829
      8 C         137.9726  140.0348  155.6704 C.ar    1  UNL1        0.0191
      9 C         138.5645  141.0983  156.5471 C.ar    1  UNL1        0.0030
     10 C         139.9247  140.9031  157.1486 C.ar    1  UNL1        0.0174
     11 C         140.6928  139.6445  156.8735 C.ar    1  UNL1        0.0642
     12 C         142.9974  135.8685  156.0481 C.2     1  UNL1        0.2505
     13 O         144.3831  135.9449  155.4788 O.2     1  UNL1       -0.2700
     14 N         142.3800  134.5336  156.3423 N.am    1  UNL1       -0.3000
     15 H         141.4705  134.4834  156.7159 H       1  UNL1        0.1498
     16 C         143.1482  133.2750  156.0671 C.3     1  UNL1        0.0986
     17 C         142.9526  132.5449  154.7714 C.3     1  UNL1        0.0220
     18 C         143.7208  131.2864  154.4963 C.3     1  UNL1        0.0019
     19 C         144.6847  130.7577  155.5168 C.3     1  UNL1        0.0026
     20 C         144.8803  131.4877  156.8125 C.3     1  UNL1        0.0309
     21 C         144.1121  132.7464  157.0877 C.3     1  UNL1        0.1283
     22 O         144.3077  133.4763  158.3834 O.3     1  UNL1       -0.3828
     23 H         144.9596  133.0045  158.9250 H       1  UNL1        0.2104
     24 C         142.6450  140.5128  158.3518 C.3     1  UNL1        0.1007
     25 N         142.6130  140.0172  162.8243 N.pl3   1  UNL1       -0.2904
     26 C         143.7843  139.5296  162.0240 C.3     1  UNL1        0.1095
     27 C         143.7949  139.6948  160.5332 C.3     1  UNL1        0.0941
     28 N         142.6343  140.3476  159.8426 N.3     1  UNL1       -0.2659
     29 C         141.4630  140.8351  160.6428 C.3     1  UNL1        0.0941
     30 C         141.4524  140.6699  162.1337 C.3     1  UNL1        0.1095
     31 C         142.5702  139.3564  168.7876 C.3     1  UNL1        0.0327
     32 C         142.5809  139.5216  167.2968 C.ar    1  UNL1       -0.0026
     33 C         143.3811  138.5823  166.4439 C.ar    1  UNL1        0.0001
     34 C         143.3918  138.7475  164.9530 C.ar    1  UNL1        0.0340
     35 C         142.6023  139.8520  164.3151 C.ar    1  UNL1        0.1317
     36 N         141.8021  140.7913  165.1681 N.ar    1  UNL1       -0.2295
     37 C         141.7914  140.6261  166.6589 C.ar    1  UNL1        0.0960
@<TRIPOS>BOND
     1    31    32    1
     2    32    33   ar
     3    33    34   ar
     4    34    35   ar
     5    35    25    1
     6    25    26    1
     7    26    27    1
     8    27    28    1
     9    28    24    1
    10    24     1    1
    11     1     2   ar
    12     2     3   ar
    13     3    12    1
    14    12    13    2
    15    12    14   am
    16    16    14    1
    17    16    17    1
    18    17    18    1
    19    18    19    1
    20    19    20    1
    21    20    21    1
    22    21    22    1
    23     3     4   ar
    24     4     5    2
    25     4     6   ar
    26     6     7   ar
    27     7     8   ar
    28     8     9   ar
    29     9    10   ar
    30    10    11   ar
    31    28    29    1
    32    29    30    1
    33    35    36   ar
    34    36    37   ar
    35    37    32   ar
    36    30    25    1
    37    11     1   ar
    38    21    16    1
    39    11     6   ar
    40    14    15    1
    41    22    23    1
@<TRIPOS>MOLECULE
*****
 37 41 0 0 0
SMALL
GASTEIGER

@<TRIPOS>ATOM
      1 C         139.7148  140.8137  157.4094 C.ar    1  UNL1        0.0104
      2 C         139.2764  140.1054  158.6568 C.ar    1  UNL1        0.0078
      3 C         139.1122  140.8715  159.9360 C.ar    1  UNL1        0.1095
      4 C         139.3864  142.3459  159.9677 C.ar    1  UNL1        0.2691
      5 O         139.2222  143.1119  161.2468 O.2     1  UNL1       -0.2665
      6 N         139.8248  143.0542  158.7202 N.ar    1  UNL1       -0.2733
      7 C         140.0990  144.5286  158.7519 C.ar    1  UNL1        0.0829
      8 C         140.5374  145.2368  157.5045 C.ar    1  UNL1        0.0191
      9 C         140.7016  144.4707  156.2254 C.ar    1  UNL1        0.0030
     10 C         140.4274  142.9964  156.1936 C.ar    1  UNL1        0.0174
     11 C         139.9890  142.2881  157.4411 C.ar    1  UNL1        0.0642
     12 C         138.6738  140.1631  161.1835 C.2     1  UNL1        0.2505
     13 O         137.3689  139.4238  161.2069 O.2     1  UNL1       -0.2700
     14 N         139.5403  140.1942  162.4074 N.am    1  UNL1       -0.3000
     15 H         140.3968  140.6794  162.3921 H       1  UNL1        0.1498
     16 C         139.1019  139.4858  163.6548 C.3     1  UNL1        0.0986
     17 C         138.5121  140.2658  164.7923 C.3     1  UNL1        0.0220
     18 C         138.0736  139.5575  166.0397 C.3     1  UNL1        0.0019
     19 C         138.2250  138.0692  166.1497 C.3     1  UNL1        0.0026
     20 C         138.8147  137.2892  165.0122 C.3     1  UNL1        0.0309
     21 C         139.2532  137.9975  163.7648 C.3     1  UNL1        0.1283
     22 O         139.8430  137.2176  162.6273 O.3     1  UNL1       -0.3828
     23 H         139.8690  136.2762  162.8600 H       1  UNL1        0.2104
     24 C         139.8789  140.0476  156.1303 C.3     1  UNL1        0.1007
     25 N         142.0131  136.0859  156.1384 N.pl3   1  UNL1       -0.2904
     26 C         142.6273  137.2701  156.8242 C.3     1  UNL1        0.1095
     27 C         141.9160  138.5906  156.8215 C.3     1  UNL1        0.0941
     28 N         140.5903  138.7271  156.1330 N.3     1  UNL1       -0.2659
     29 C         139.9760  137.5429  155.4471 C.3     1  UNL1        0.0941
     30 C         140.6875  136.2223  155.4498 C.3     1  UNL1        0.1095
     31 C         144.8585  130.8036  156.1491 C.3     1  UNL1        0.0327
     32 C         144.1472  132.1242  156.1465 C.ar    1  UNL1       -0.0026
     33 C         143.2990  132.5167  154.9733 C.ar    1  UNL1        0.0001
     34 C         142.5876  133.8373  154.9706 C.ar    1  UNL1        0.0340
     35 C         142.7244  134.7653  156.1411 C.ar    1  UNL1        0.1317
     36 N         143.5727  134.3727  157.3143 N.ar    1  UNL1       -0.2295
     37 C         144.2840  133.0522  157.3170 C.ar    1  UNL1        0.0960
@<TRIPOS>BOND
     1    31    32    1
     2    32    33   ar
     3    33    34   ar
     4    34    35   ar
     5    35    25    1
     6    25    26    1
     7    26    27    1
     8    27    28    1
     9    28    24    1
    10    24     1    1
    11     1     2   ar
    12     2     3   ar
    13     3    12    1
    14    12    13    2
    15    12    14   am
    16    16    14    1
    17    16    17    1
    18    17    18    1
    19    18    19    1
    20    19    20    1
    21    20    21    1
    22    21    22    1
    23     3     4   ar
    24     4     5    2
    25     4     6   ar
    26     6     7   ar
    27     7     8   ar
    28     8     9   ar
    29     9    10   ar
    30    10    11   ar
    31    28    29    1
    32    29    30    1
    33    35    36   ar
    34    36    37   ar
    35    37    32   ar
    36    30    25    1
    37    11     1   ar
    38    21    16    1
    39    11     6   ar
    40    14    15    1
    41    22    23    1
@<TRIPOS>MOLECULE
*****
 37 41 0 0 0
SMALL
GASTEIGER

@<TRIPOS>ATOM
      1 C         141.2258  139.9028  158.9946 C.ar    1  UNL1        0.0104
      2 C         141.0366  138.5901  158.2938 C.ar    1  UNL1        0.0078
      3 C         142.0577  138.1148  157.3031 C.ar    1  UNL1        0.1095
      4 C         143.2679  138.9522  157.0132 C.ar    1  UNL1        0.2691
      5 O         144.2890  138.4769  156.0224 O.2     1  UNL1       -0.2665
      6 N         143.4571  140.2649  157.7139 N.ar    1  UNL1       -0.2733
      7 C         144.6674  141.1023  157.4240 C.ar    1  UNL1        0.0829
      8 C         144.8565  142.4149  158.1248 C.ar    1  UNL1        0.0191
      9 C         143.8354  142.8902  159.1155 C.ar    1  UNL1        0.0030
     10 C         142.6252  142.0529  159.4054 C.ar    1  UNL1        0.0174
     11 C         142.4361  140.7402  158.7046 C.ar    1  UNL1        0.0642
     12 C         141.8685  136.8021  156.6023 C.2     1  UNL1        0.2505
     13 O         140.5460  136.4693  155.9775 O.2     1  UNL1       -0.2700
     14 N         143.0017  135.8223  156.5263 N.am    1  UNL1       -0.3000
     15 H         143.8696  136.0408  156.9364 H       1  UNL1        0.1498
     16 C         142.8124  134.5097  155.8256 C.3     1  UNL1        0.0986
     17 C         142.5782  134.4772  154.3443 C.3     1  UNL1        0.0220
     18 C         142.3890  133.1645  153.6435 C.3     1  UNL1        0.0019
     19 C         142.4339  131.8843  154.4240 C.3     1  UNL1        0.0026
     20 C         142.6681  131.9168  155.9052 C.3     1  UNL1        0.0309
     21 C         142.8574  133.2295  156.6061 C.3     1  UNL1        0.1283
     22 O         143.0916  133.2619  158.0873 O.3     1  UNL1       -0.3828
     23 H         143.0912  132.3563  158.4346 H       1  UNL1        0.2104
     24 C         140.2047  140.3781  159.9853 C.3     1  UNL1        0.1007
     25 N         141.0123  140.0173  164.3975 N.pl3   1  UNL1       -0.2904
     26 C         140.8670  138.7826  163.5582 C.3     1  UNL1        0.1095
     27 C         140.5978  138.9028  162.0875 C.3     1  UNL1        0.0941
     28 N         140.4739  140.2578  161.4560 N.3     1  UNL1       -0.2659
     29 C         140.6192  141.4925  162.2953 C.3     1  UNL1        0.0941
     30 C         140.8884  141.3722  163.7661 C.3     1  UNL1        0.1095
     31 C         142.0892  139.5363  170.2804 C.3     1  UNL1        0.0327
     32 C         141.8200  139.6566  168.8097 C.ar    1  UNL1       -0.0026
     33 C         142.8478  139.1960  167.8190 C.ar    1  UNL1        0.0001
     34 C         142.5786  139.3162  166.3482 C.ar    1  UNL1        0.0340
     35 C         141.2816  139.8970  165.8682 C.ar    1  UNL1        0.1317
     36 N         140.2537  140.3576  166.8589 N.ar    1  UNL1       -0.2295
     37 C         140.5229  140.2373  168.3296 C.ar    1  UNL1        0.0960
@<TRIPOS>BOND
     1    31    32    1
     2    32    33   ar
     3    33    34   ar
     4    34    35   ar
     5    35    25    1
     6    25    26    1
     7    26    27    1
     8    27    28    1
     9    28    24    1
    10    24     1    1
    11     1     2   ar
    12     2     3   ar
    13     3    12    1
    14    12    13    2
    15    12    14   am
    16    16    14    1
    17    16    17    1
    18    17    18    1
    19    18    19    1
    20    19    20    1
    21    20    21    1
    22    21    22    1
    23     3     4   ar
    24     4     5    2
    25     4     6   ar
    26     6     7   ar
    27     7     8   ar
    28     8     9   ar
    29     9    10   ar
    30    10    11   ar
    31    28    29    1
    32    29    30    1
    33    35    36   ar
    34    36    37   ar
    35    37    32   ar
    36    30    25    1
    37    11     1   ar
    38    21    16    1
    39    11     6   ar
    40    14    15    1
    41    22    23    1
