@<TRIPOS>MOLECULE
*****
 32 35 0 0 0
SMALL
GASTEIGER

@<TRIPOS>ATOM
      1 C         140.6867  142.8690  164.8750 C.ar    1  UNL1        0.0300
      2 C         139.8241  144.0936  164.7975 C.ar    1  UNL1        0.0997
      3 N         139.8209  144.9312  163.5531 N.ar    1  UNL1       -0.2423
      4 C         140.6804  144.5440  162.3862 C.ar    1  UNL1        0.0997
      5 C         141.5430  143.3194  162.4638 C.ar    1  UNL1        0.0298
      6 C         141.5462  142.4818  163.7083 C.ar    1  UNL1        0.0606
      7 CL        142.4089  141.2572  163.7859 Cl      1  UNL1       -0.0821
      8 C         141.7834  141.3643  168.3798 C.ar    1  UNL1        0.1754
      9 C         141.7802  142.2018  167.1354 C.ar    1  UNL1        0.0403
     10 C         140.6899  142.0314  166.1195 C.ar    1  UNL1        0.0086
     11 C         139.6027  141.0235  166.3480 C.ar    1  UNL1        0.0403
     12 C         139.6059  140.1861  167.5924 C.ar    1  UNL1        0.1754
     13 C         140.6963  140.3565  168.6083 C.ar    1  UNL1        0.2061
     14 C         142.8737  142.7293  170.3029 C.3     1  UNL1        0.2526
     15 O         142.8738  141.5347  169.3957 O.3     1  UNL1       -0.4683
     16 O         138.5188  139.1781  167.8209 O.3     1  UNL1       -0.4683
     17 C         137.8570  138.5107  166.6519 C.3     1  UNL1        0.2526
     18 O         140.6995  139.5189  169.8528 O.3     1  UNL1       -0.4654
     19 C         140.1052  140.0572  171.1205 C.3     1  UNL1        0.2528
     20 C         142.4025  142.9323  161.2971 C.ar    1  UNL1        0.0024
     21 C         141.7728  142.3842  160.0509 C.ar    1  UNL1        0.0013
     22 C         142.6322  141.9970  158.8840 C.ar    1  UNL1        0.0145
     23 C         144.1215  142.1580  158.9634 C.ar    1  UNL1        0.0479
     24 C         144.7512  142.7060  160.2097 C.ar    1  UNL1        0.0145
     25 C         143.8917  143.0932  161.3765 C.ar    1  UNL1        0.0013
     26 N         144.9809  141.7708  157.7967 N.pl3   1  UNL1       -0.3047
     27 C         144.6157  140.5821  156.9579 C.3     1  UNL1        0.1079
     28 C         145.4752  140.1949  155.7911 C.3     1  UNL1        0.0903
     29 N         146.6999  140.9965  155.4631 N.3     1  UNL1       -0.2946
     30 C         147.0651  142.1853  156.3019 C.3     1  UNL1        0.0903
     31 C         146.2056  142.5724  157.4686 C.3     1  UNL1        0.1079
     32 H         146.5833  141.3348  154.5079 H       1  UNL1        0.1233
@<TRIPOS>BOND
     1    14    15    1
     2    15     8    1
     3     8     9   ar
     4     9    10   ar
     5    10     1    1
     6     1     2   ar
     7     2     3   ar
     8     3     4   ar
     9     4     5   ar
    10     5    20    1
    11    20    21   ar
    12    21    22   ar
    13    22    23   ar
    14    23    26    1
    15    26    27    1
    16    27    28    1
    17    28    29    1
    18    29    30    1
    19    30    31    1
    20    23    24   ar
    21    24    25   ar
    22     5     6   ar
    23     6     7    1
    24    10    11   ar
    25    11    12   ar
    26    12    16    1
    27    16    17    1
    28    12    13   ar
    29    13    18    1
    30    18    19    1
    31    13     8   ar
    32     6     1   ar
    33    25    20   ar
    34    31    26    1
    35    29    32    1
@<TRIPOS>MOLECULE
*****
 32 35 0 0 0
SMALL
GASTEIGER

@<TRIPOS>ATOM
      1 C         140.7111  142.8867  164.9476 C.ar    1  UNL1        0.0300
      2 C         139.8618  144.1213  164.8805 C.ar    1  UNL1        0.0997
      3 N         139.8627  144.9658  163.6409 N.ar    1  UNL1       -0.2423
      4 C         140.7130  144.5758  162.4682 C.ar    1  UNL1        0.0997
      5 C         141.5623  143.3412  162.5353 C.ar    1  UNL1        0.0298
      6 C         141.5613  142.4967  163.7750 C.ar    1  UNL1        0.0606
      7 CL        142.4106  141.2621  163.8421 Cl      1  UNL1       -0.0821
      8 C         139.6326  140.1744  167.6364 C.ar    1  UNL1        0.1754
      9 C         139.6336  141.0189  166.3968 C.ar    1  UNL1        0.0403
     10 C         140.7101  142.0422  166.1873 C.ar    1  UNL1        0.0086
     11 C         141.7857  142.2209  167.2174 C.ar    1  UNL1        0.0403
     12 C         141.7847  141.3764  168.4570 C.ar    1  UNL1        0.1754
     13 C         140.7081  140.3531  168.6665 C.ar    1  UNL1        0.2061
     14 C         137.8150  138.5902  166.6685 C.3     1  UNL1        0.2526
     15 O         138.5560  139.1511  167.8459 O.3     1  UNL1       -0.4683
     16 O         142.8602  141.5552  169.4872 O.3     1  UNL1       -0.4683
     17 C         142.8665  142.7742  170.3612 C.3     1  UNL1        0.2526
     18 O         140.7071  139.5086  169.9062 O.3     1  UNL1       -0.4654
     19 C         140.1564  140.0591  171.1883 C.3     1  UNL1        0.2528
     20 C         142.4125  142.9512  161.3628 C.ar    1  UNL1        0.0024
     21 C         143.9024  143.1119  161.4302 C.ar    1  UNL1        0.0013
     22 C         144.7527  142.7218  160.2577 C.ar    1  UNL1        0.0145
     23 C         144.1131  142.1711  159.0176 C.ar    1  UNL1        0.0479
     24 C         142.6232  142.0104  158.9502 C.ar    1  UNL1        0.0145
     25 C         141.7730  142.4005  160.1227 C.ar    1  UNL1        0.0013
     26 N         144.9634  141.7811  157.8451 N.pl3   1  UNL1       -0.3047
     27 C         146.1818  142.5856  157.5016 C.3     1  UNL1        0.1079
     28 C         147.0322  142.1956  156.3290 C.3     1  UNL1        0.0903
     29 N         146.6639  141.0010  155.5000 N.3     1  UNL1       -0.2946
     30 C         145.4454  140.1964  155.8435 C.3     1  UNL1        0.0903
     31 C         144.5951  140.5865  157.0160 C.3     1  UNL1        0.1079
     32 H         147.4582  140.3620  155.5351 H       1  UNL1        0.1233
@<TRIPOS>BOND
     1    14    15    1
     2    15     8    1
     3     8     9   ar
     4     9    10   ar
     5    10     1    1
     6     1     2   ar
     7     2     3   ar
     8     3     4   ar
     9     4     5   ar
    10     5    20    1
    11    20    21   ar
    12    21    22   ar
    13    22    23   ar
    14    23    26    1
    15    26    27    1
    16    27    28    1
    17    28    29    1
    18    29    30    1
    19    30    31    1
    20    23    24   ar
    21    24    25   ar
    22     5     6   ar
    23     6     7    1
    24    10    11   ar
    25    11    12   ar
    26    12    16    1
    27    16    17    1
    28    12    13   ar
    29    13    18    1
    30    18    19    1
    31    13     8   ar
    32     6     1   ar
    33    25    20   ar
    34    31    26    1
    35    29    32    1
@<TRIPOS>MOLECULE
*****
 32 35 0 0 0
SMALL
GASTEIGER

@<TRIPOS>ATOM
      1 C         138.8955  141.3487  163.7049 C.ar    1  UNL1        0.0300
      2 C         137.8668  142.3607  163.2953 C.ar    1  UNL1        0.0997
      3 N         137.6835  142.6993  161.8456 N.ar    1  UNL1       -0.2423
      4 C         138.5288  142.0260  160.8054 C.ar    1  UNL1        0.0997
      5 C         139.5575  141.0140  161.2149 C.ar    1  UNL1        0.0298
      6 C         139.7408  140.6753  162.6647 C.ar    1  UNL1        0.0606
      7 CL        140.7694  139.6633  163.0742 Cl      1  UNL1       -0.0821
      8 C         140.1815  141.4951  167.4565 C.ar    1  UNL1        0.1754
      9 C         139.9982  141.8337  166.0068 C.ar    1  UNL1        0.0403
     10 C         139.0788  141.0100  165.1546 C.ar    1  UNL1        0.0086
     11 C         138.3427  139.8477  165.7522 C.ar    1  UNL1        0.0403
     12 C         138.5260  139.5091  167.2019 C.ar    1  UNL1        0.1754
     13 C         139.4454  140.3328  168.0541 C.ar    1  UNL1        0.2061
     14 C         140.5349  143.3148  169.2769 C.3     1  UNL1        0.2526
     15 O         141.1009  142.3189  168.3086 O.3     1  UNL1       -0.4683
     16 O         137.7899  138.3467  167.7996 O.3     1  UNL1       -0.4683
     17 C         137.3730  137.1966  166.9316 C.3     1  UNL1        0.2526
     18 O         139.6287  139.9942  169.5038 O.3     1  UNL1       -0.4654
     19 C         140.9884  139.6315  170.0232 C.3     1  UNL1        0.2528
     20 C         140.4028  140.3406  160.1747 C.ar    1  UNL1        0.0024
     21 C         141.7372  140.9171  159.8046 C.ar    1  UNL1        0.0013
     22 C         142.5826  140.2437  158.7643 C.ar    1  UNL1        0.0145
     23 C         142.0935  138.9940  158.0944 C.ar    1  UNL1        0.0479
     24 C         140.7591  138.4175  158.4646 C.ar    1  UNL1        0.0145
     25 C         139.9138  139.0909  159.5048 C.ar    1  UNL1        0.0013
     26 N         142.9389  138.3206  157.0542 N.pl3   1  UNL1       -0.3047
     27 C         142.9287  136.8256  156.9323 C.3     1  UNL1        0.1079
     28 C         143.7741  136.1522  155.8921 C.3     1  UNL1        0.0903
     29 N         144.6296  136.9738  154.9738 N.3     1  UNL1       -0.2946
     30 C         144.6397  138.4689  155.0958 C.3     1  UNL1        0.0903
     31 C         143.7943  139.1422  156.1360 C.3     1  UNL1        0.1079
     32 H         144.3319  136.7580  154.0224 H       1  UNL1        0.1233
@<TRIPOS>BOND
     1    14    15    1
     2    15     8    1
     3     8     9   ar
     4     9    10   ar
     5    10     1    1
     6     1     2   ar
     7     2     3   ar
     8     3     4   ar
     9     4     5   ar
    10     5    20    1
    11    20    21   ar
    12    21    22   ar
    13    22    23   ar
    14    23    26    1
    15    26    27    1
    16    27    28    1
    17    28    29    1
    18    29    30    1
    19    30    31    1
    20    23    24   ar
    21    24    25   ar
    22     5     6   ar
    23     6     7    1
    24    10    11   ar
    25    11    12   ar
    26    12    16    1
    27    16    17    1
    28    12    13   ar
    29    13    18    1
    30    18    19    1
    31    13     8   ar
    32     6     1   ar
    33    25    20   ar
    34    31    26    1
    35    29    32    1
@<TRIPOS>MOLECULE
*****
 32 35 0 0 0
SMALL
GASTEIGER

@<TRIPOS>ATOM
      1 C         140.9229  142.4064  160.5005 C.ar    1  UNL1        0.0300
      2 C         141.3597  143.7666  160.0434 C.ar    1  UNL1        0.0997
      3 N         141.8779  144.7618  161.0388 N.ar    1  UNL1       -0.2423
      4 C         141.9594  144.3967  162.4915 C.ar    1  UNL1        0.0997
      5 C         141.5227  143.0365  162.9486 C.ar    1  UNL1        0.0298
      6 C         141.0044  142.0413  161.9531 C.ar    1  UNL1        0.0606
      7 CL        140.5676  140.6810  162.4102 Cl      1  UNL1       -0.0821
      8 C         140.8202  139.4187  157.8902 C.ar    1  UNL1        0.1754
      9 C         141.3384  140.4139  158.8857 C.ar    1  UNL1        0.0403
     10 C         140.4046  141.4112  159.5050 C.ar    1  UNL1        0.0086
     11 C         138.9526  141.4132  159.1287 C.ar    1  UNL1        0.0403
     12 C         138.4344  140.4181  158.1332 C.ar    1  UNL1        0.1754
     13 C         139.3682  139.4208  157.5140 C.ar    1  UNL1        0.2061
     14 C         142.6587  137.6002  158.1411 C.3     1  UNL1        0.2526
     15 O         141.7540  138.4215  157.2710 O.3     1  UNL1       -0.4683
     16 O         136.9823  140.4201  157.7569 O.3     1  UNL1       -0.4683
     17 C         136.5138  141.2226  156.5795 C.3     1  UNL1        0.2526
     18 O         138.8499  138.4256  156.5184 O.3     1  UNL1       -0.4654
     19 C         138.8901  138.7407  155.0525 C.3     1  UNL1        0.2528
     20 C         141.6041  142.6714  164.4012 C.ar    1  UNL1        0.0024
     21 C         142.8765  142.1101  164.9632 C.ar    1  UNL1        0.0013
     22 C         142.9581  141.7450  166.4158 C.ar    1  UNL1        0.0145
     23 C         141.7672  141.9413  167.3065 C.ar    1  UNL1        0.0479
     24 C         140.4947  142.5027  166.7444 C.ar    1  UNL1        0.0145
     25 C         140.4132  142.8678  165.2919 C.ar    1  UNL1        0.0013
     26 N         141.8486  141.5762  168.7590 N.pl3   1  UNL1       -0.3047
     27 C         142.7782  140.4879  169.2078 C.3     1  UNL1        0.1079
     28 C         142.8597  140.1228  170.6605 C.3     1  UNL1        0.0903
     29 N         142.0117  140.8460  171.6643 N.3     1  UNL1       -0.2946
     30 C         141.0821  141.9344  171.2155 C.3     1  UNL1        0.0903
     31 C         141.0006  142.2995  169.7629 C.3     1  UNL1        0.1079
     32 H         142.6493  141.2642  172.3417 H       1  UNL1        0.1233
@<TRIPOS>BOND
     1    14    15    1
     2    15     8    1
     3     8     9   ar
     4     9    10   ar
     5    10     1    1
     6     1     2   ar
     7     2     3   ar
     8     3     4   ar
     9     4     5   ar
    10     5    20    1
    11    20    21   ar
    12    21    22   ar
    13    22    23   ar
    14    23    26    1
    15    26    27    1
    16    27    28    1
    17    28    29    1
    18    29    30    1
    19    30    31    1
    20    23    24   ar
    21    24    25   ar
    22     5     6   ar
    23     6     7    1
    24    10    11   ar
    25    11    12   ar
    26    12    16    1
    27    16    17    1
    28    12    13   ar
    29    13    18    1
    30    18    19    1
    31    13     8   ar
    32     6     1   ar
    33    25    20   ar
    34    31    26    1
    35    29    32    1
@<TRIPOS>MOLECULE
*****
 32 35 0 0 0
SMALL
GASTEIGER

@<TRIPOS>ATOM
      1 C         140.9054  142.4698  160.5375 C.ar    1  UNL1        0.0300
      2 C         141.3402  143.8326  160.0860 C.ar    1  UNL1        0.0997
      3 N         141.8549  144.8252  161.0859 N.ar    1  UNL1       -0.2423
      4 C         141.9347  144.4550  162.5374 C.ar    1  UNL1        0.0997
      5 C         141.4999  143.0922  162.9888 C.ar    1  UNL1        0.0298
      6 C         140.9852  142.0996  161.9888 C.ar    1  UNL1        0.0606
      7 CL        140.5503  140.7369  162.4403 Cl      1  UNL1       -0.0821
      8 C         138.4282  140.4973  158.1451 C.ar    1  UNL1        0.1754
      9 C         138.9429  141.4899  159.1451 C.ar    1  UNL1        0.0403
     10 C         140.3907  141.4772  159.5375 C.ar    1  UNL1        0.0086
     11 C         141.3237  140.4721  158.9299 C.ar    1  UNL1        0.0403
     12 C         140.8090  139.4796  157.9299 C.ar    1  UNL1        0.1754
     13 C         139.3612  139.4922  157.5376 C.ar    1  UNL1        0.2061
     14 C         136.5319  141.3110  156.5666 C.3     1  UNL1        0.2526
     15 O         136.9805  140.5099  157.7528 O.3     1  UNL1       -0.4683
     16 O         141.7420  138.4744  157.3223 O.3     1  UNL1       -0.4683
     17 C         142.6633  137.6799  158.1998 C.3     1  UNL1        0.2526
     18 O         138.8465  138.4996  156.5376 O.3     1  UNL1       -0.4654
     19 C         138.9272  138.8023  155.0706 C.3     1  UNL1        0.2528
     20 C         141.5797  142.7221  164.4402 C.ar    1  UNL1        0.0024
     21 C         142.8450  142.1401  164.9972 C.ar    1  UNL1        0.0013
     22 C         142.9249  141.7698  166.4487 C.ar    1  UNL1        0.0145
     23 C         141.7394  141.9816  167.3430 C.ar    1  UNL1        0.0479
     24 C         140.4741  142.5637  166.7859 C.ar    1  UNL1        0.0145
     25 C         140.3943  142.9338  165.3346 C.ar    1  UNL1        0.0013
     26 N         141.8192  141.6115  168.7944 N.pl3   1  UNL1       -0.3047
     27 C         142.8141  140.5870  169.2535 C.3     1  UNL1        0.1079
     28 C         142.8939  140.2168  170.7049 C.3     1  UNL1        0.0903
     29 N         141.9789  140.8710  171.6972 N.3     1  UNL1       -0.2946
     30 C         140.9841  141.8955  171.2381 C.3     1  UNL1        0.0903
     31 C         140.9042  142.2657  169.7867 C.3     1  UNL1        0.1079
     32 H         142.5732  141.3272  172.3895 H       1  UNL1        0.1233
@<TRIPOS>BOND
     1    14    15    1
     2    15     8    1
     3     8     9   ar
     4     9    10   ar
     5    10     1    1
     6     1     2   ar
     7     2     3   ar
     8     3     4   ar
     9     4     5   ar
    10     5    20    1
    11    20    21   ar
    12    21    22   ar
    13    22    23   ar
    14    23    26    1
    15    26    27    1
    16    27    28    1
    17    28    29    1
    18    29    30    1
    19    30    31    1
    20    23    24   ar
    21    24    25   ar
    22     5     6   ar
    23     6     7    1
    24    10    11   ar
    25    11    12   ar
    26    12    16    1
    27    16    17    1
    28    12    13   ar
    29    13    18    1
    30    18    19    1
    31    13     8   ar
    32     6     1   ar
    33    25    20   ar
    34    31    26    1
    35    29    32    1
@<TRIPOS>MOLECULE
*****
 32 35 0 0 0
SMALL
GASTEIGER

@<TRIPOS>ATOM
      1 C         139.0348  141.3609  163.6506 C.ar    1  UNL1        0.0300
      2 C         137.9657  142.3142  163.2051 C.ar    1  UNL1        0.0997
      3 N         137.7215  142.5367  161.7420 N.ar    1  UNL1       -0.2423
      4 C         138.5463  141.8059  160.7243 C.ar    1  UNL1        0.0997
      5 C         139.6154  140.8527  161.1697 C.ar    1  UNL1        0.0298
      6 C         139.8596  140.6302  162.6330 C.ar    1  UNL1        0.0606
      7 CL        140.9286  139.6770  163.0785 Cl      1  UNL1       -0.0821
      8 C         138.7821  139.8339  167.3050 C.ar    1  UNL1        0.1754
      9 C         138.5379  140.0564  165.8418 C.ar    1  UNL1        0.0403
     10 C         139.2790  141.1385  165.1138 C.ar    1  UNL1        0.0086
     11 C         140.2642  141.9980  165.8490 C.ar    1  UNL1        0.0403
     12 C         140.5083  141.7755  167.3121 C.ar    1  UNL1        0.1754
     13 C         139.7673  140.6935  168.0401 C.ar    1  UNL1        0.2061
     14 C         137.1635  137.8019  167.2731 C.3     1  UNL1        0.2526
     15 O         138.0411  138.7518  168.0330 O.3     1  UNL1       -0.4683
     16 O         141.4936  142.6351  168.0473 O.3     1  UNL1       -0.4683
     17 C         142.9368  142.2321  168.1147 C.3     1  UNL1        0.2526
     18 O         140.0115  140.4710  169.5033 O.3     1  UNL1       -0.4654
     19 C         141.1784  139.6418  169.9514 C.3     1  UNL1        0.2528
     20 C         140.4402  140.1219  160.1521 C.ar    1  UNL1        0.0024
     21 C         141.8707  140.5123  159.9258 C.ar    1  UNL1        0.0013
     22 C         142.6956  139.7816  158.9082 C.ar    1  UNL1        0.0145
     23 C         142.0899  138.6604  158.1168 C.ar    1  UNL1        0.0479
     24 C         140.6593  138.2701  158.3431 C.ar    1  UNL1        0.0145
     25 C         139.8345  139.0008  159.3607 C.ar    1  UNL1        0.0013
     26 N         142.9147  137.9297  157.0991 N.pl3   1  UNL1       -0.3047
     27 C         143.7394  138.6987  156.1099 C.3     1  UNL1        0.1079
     28 C         144.5642  137.9679  155.0922 C.3     1  UNL1        0.0903
     29 N         144.5644  136.4682  155.0638 N.3     1  UNL1       -0.2946
     30 C         143.7398  135.6992  156.0531 C.3     1  UNL1        0.0903
     31 C         142.9149  136.4300  157.0707 C.3     1  UNL1        0.1079
     32 H         145.5317  136.1714  155.1929 H       1  UNL1        0.1233
@<TRIPOS>BOND
     1    14    15    1
     2    15     8    1
     3     8     9   ar
     4     9    10   ar
     5    10     1    1
     6     1     2   ar
     7     2     3   ar
     8     3     4   ar
     9     4     5   ar
    10     5    20    1
    11    20    21   ar
    12    21    22   ar
    13    22    23   ar
    14    23    26    1
    15    26    27    1
    16    27    28    1
    17    28    29    1
    18    29    30    1
    19    30    31    1
    20    23    24   ar
    21    24    25   ar
    22     5     6   ar
    23     6     7    1
    24    10    11   ar
    25    11    12   ar
    26    12    16    1
    27    16    17    1
    28    12    13   ar
    29    13    18    1
    30    18    19    1
    31    13     8   ar
    32     6     1   ar
    33    25    20   ar
    34    31    26    1
    35    29    32    1
@<TRIPOS>MOLECULE
*****
 32 35 0 0 0
SMALL
GASTEIGER

@<TRIPOS>ATOM
      1 C         139.5224  141.0508  160.4605 C.ar    1  UNL1        0.0300
      2 C         138.5379  142.0833  159.9973 C.ar    1  UNL1        0.0997
      3 N         137.8543  142.9692  160.9962 N.ar    1  UNL1       -0.2423
      4 C         138.1552  142.8225  162.4584 C.ar    1  UNL1        0.0997
      5 C         139.1398  141.7900  162.9216 C.ar    1  UNL1        0.0298
      6 C         139.8234  140.9042  161.9226 C.ar    1  UNL1        0.0606
      7 CL        140.8080  139.8716  162.3858 Cl      1  UNL1       -0.0821
      8 C         140.0877  138.3043  157.6520 C.ar    1  UNL1        0.1754
      9 C         139.4042  139.1902  158.6510 C.ar    1  UNL1        0.0403
     10 C         140.2061  140.1649  159.4614 C.ar    1  UNL1        0.0086
     11 C         141.6915  140.2538  159.2730 C.ar    1  UNL1        0.0403
     12 C         142.3750  139.3679  158.2740 C.ar    1  UNL1        0.1754
     13 C         141.5731  138.3932  157.4635 C.ar    1  UNL1        0.2061
     14 C         138.9812  137.6227  155.4023 C.3     1  UNL1        0.2526
     15 O         139.2858  137.3296  156.8415 O.3     1  UNL1       -0.4683
     16 O         143.8605  139.4568  158.0855 O.3     1  UNL1       -0.4683
     17 C         144.4875  140.7544  157.6695 C.3     1  UNL1        0.2526
     18 O         142.2567  137.5073  156.4645 O.3     1  UNL1       -0.4654
     19 C         142.8307  136.1911  156.8983 C.3     1  UNL1        0.2528
     20 C         139.4408  141.6434  164.3837 C.ar    1  UNL1        0.0024
     21 C         140.2689  142.6779  165.0864 C.ar    1  UNL1        0.0013
     22 C         140.5699  142.5313  166.5486 C.ar    1  UNL1        0.0145
     23 C         140.0427  141.3501  167.3081 C.ar    1  UNL1        0.0479
     24 C         139.2145  140.3155  166.6053 C.ar    1  UNL1        0.0145
     25 C         138.9135  140.4622  165.1432 C.ar    1  UNL1        0.0013
     26 N         140.3437  141.2035  168.7702 N.pl3   1  UNL1       -0.3047
     27 C         139.6808  140.1194  169.5673 C.3     1  UNL1        0.1079
     28 C         139.9818  139.9727  171.0295 C.3     1  UNL1        0.0903
     29 N         140.9456  140.9101  171.6945 N.3     1  UNL1       -0.2946
     30 C         141.6084  141.9942  170.8974 C.3     1  UNL1        0.0903
     31 C         141.3075  142.1409  169.4353 C.3     1  UNL1        0.1079
     32 H         141.6913  140.3358  172.0876 H       1  UNL1        0.1233
@<TRIPOS>BOND
     1    14    15    1
     2    15     8    1
     3     8     9   ar
     4     9    10   ar
     5    10     1    1
     6     1     2   ar
     7     2     3   ar
     8     3     4   ar
     9     4     5   ar
    10     5    20    1
    11    20    21   ar
    12    21    22   ar
    13    22    23   ar
    14    23    26    1
    15    26    27    1
    16    27    28    1
    17    28    29    1
    18    29    30    1
    19    30    31    1
    20    23    24   ar
    21    24    25   ar
    22     5     6   ar
    23     6     7    1
    24    10    11   ar
    25    11    12   ar
    26    12    16    1
    27    16    17    1
    28    12    13   ar
    29    13    18    1
    30    18    19    1
    31    13     8   ar
    32     6     1   ar
    33    25    20   ar
    34    31    26    1
    35    29    32    1
@<TRIPOS>MOLECULE
*****
 32 35 0 0 0
SMALL
GASTEIGER

@<TRIPOS>ATOM
      1 C         140.2115  141.1199  160.1922 C.ar    1  UNL1        0.0300
      2 C         139.1762  142.0528  159.6373 C.ar    1  UNL1        0.0997
      3 N         138.3326  142.8748  160.5659 N.ar    1  UNL1       -0.2423
      4 C         138.5241  142.7640  162.0495 C.ar    1  UNL1        0.0997
      5 C         139.5594  141.8311  162.6044 C.ar    1  UNL1        0.0298
      6 C         140.4031  141.0090  161.6757 C.ar    1  UNL1        0.0606
      7 CL        141.4383  140.0761  162.2307 Cl      1  UNL1       -0.0821
      8 C         143.3327  139.8471  158.0973 C.ar    1  UNL1        0.1754
      9 C         142.4890  140.6691  159.0259 C.ar    1  UNL1        0.0403
     10 C         141.0552  140.2978  159.2635 C.ar    1  UNL1        0.0086
     11 C         140.4651  139.1045  158.5724 C.ar    1  UNL1        0.0403
     12 C         141.3088  138.2824  157.6437 C.ar    1  UNL1        0.1754
     13 C         142.7426  138.6538  157.4062 C.ar    1  UNL1        0.2061
     14 C         145.1248  141.1457  156.7365 C.3     1  UNL1        0.2526
     15 O         144.7664  140.2185  157.8598 O.3     1  UNL1       -0.4683
     16 O         140.7188  137.0890  156.9525 O.3     1  UNL1       -0.4683
     17 C         139.5634  137.2624  156.0118 C.3     1  UNL1        0.2526
     18 O         143.5863  137.8317  156.4775 O.3     1  UNL1       -0.4654
     19 C         143.6060  138.1413  155.0099 C.3     1  UNL1        0.2528
     20 C         139.7509  141.7203  164.0880 C.ar    1  UNL1        0.0024
     21 C         139.1569  140.5641  164.8366 C.ar    1  UNL1        0.0013
     22 C         139.3485  140.4532  166.3202 C.ar    1  UNL1        0.0145
     23 C         140.1340  141.4985  167.0552 C.ar    1  UNL1        0.0479
     24 C         140.7280  142.6547  166.3065 C.ar    1  UNL1        0.0145
     25 C         140.5365  142.7656  164.8230 C.ar    1  UNL1        0.0013
     26 N         140.3256  141.3877  168.5387 N.pl3   1  UNL1       -0.3047
     27 C         139.7496  140.2204  169.2841 C.3     1  UNL1        0.1079
     28 C         139.9412  140.1095  170.7678 C.3     1  UNL1        0.0903
     29 N         140.7087  141.1659  171.5059 N.3     1  UNL1       -0.2946
     30 C         141.2847  142.3332  170.7604 C.3     1  UNL1        0.0903
     31 C         141.0931  142.4441  169.2769 C.3     1  UNL1        0.1079
     32 H         141.4888  140.6961  171.9655 H       1  UNL1        0.1233
@<TRIPOS>BOND
     1    14    15    1
     2    15     8    1
     3     8     9   ar
     4     9    10   ar
     5    10     1    1
     6     1     2   ar
     7     2     3   ar
     8     3     4   ar
     9     4     5   ar
    10     5    20    1
    11    20    21   ar
    12    21    22   ar
    13    22    23   ar
    14    23    26    1
    15    26    27    1
    16    27    28    1
    17    28    29    1
    18    29    30    1
    19    30    31    1
    20    23    24   ar
    21    24    25   ar
    22     5     6   ar
    23     6     7    1
    24    10    11   ar
    25    11    12   ar
    26    12    16    1
    27    16    17    1
    28    12    13   ar
    29    13    18    1
    30    18    19    1
    31    13     8   ar
    32     6     1   ar
    33    25    20   ar
    34    31    26    1
    35    29    32    1
@<TRIPOS>MOLECULE
*****
 32 35 0 0 0
SMALL
GASTEIGER

@<TRIPOS>ATOM
      1 C         142.5857  142.9378  160.4593 C.ar    1  UNL1        0.0300
      2 C         141.8363  144.1811  160.0818 C.ar    1  UNL1        0.0997
      3 N         141.1444  144.9898  161.1388 N.ar    1  UNL1       -0.2423
      4 C         141.2019  144.5552  162.5733 C.ar    1  UNL1        0.0997
      5 C         141.9513  143.3119  162.9509 C.ar    1  UNL1        0.0298
      6 C         142.6432  142.5032  161.8938 C.ar    1  UNL1        0.0606
      7 CL        143.3926  141.2598  162.2713 Cl      1  UNL1       -0.0821
      8 C         143.5690  139.8941  158.1100 C.ar    1  UNL1        0.1754
      9 C         142.8771  140.7028  159.1670 C.ar    1  UNL1        0.0403
     10 C         143.2777  142.1291  159.4023 C.ar    1  UNL1        0.0086
     11 C         144.3701  142.7466  158.5806 C.ar    1  UNL1        0.0403
     12 C         145.0620  141.9379  157.5237 C.ar    1  UNL1        0.1754
     13 C         144.6614  140.5116  157.2884 C.ar    1  UNL1        0.2061
     14 C         142.2280  138.1276  156.7568 C.3     1  UNL1        0.2526
     15 O         143.1684  138.4678  157.8747 O.3     1  UNL1       -0.4683
     16 O         146.1545  142.5554  156.7019 O.3     1  UNL1       -0.4683
     17 C         147.4561  142.9312  157.3458 C.3     1  UNL1        0.2526
     18 O         145.3534  139.7029  156.2313 O.3     1  UNL1       -0.4654
     19 C         144.9517  139.8476  154.7934 C.3     1  UNL1        0.2528
     20 C         142.0087  142.8773  164.3853 C.ar    1  UNL1        0.0024
     21 C         143.2812  143.0297  165.1647 C.ar    1  UNL1        0.0013
     22 C         143.3387  142.5951  166.5993 C.ar    1  UNL1        0.0145
     23 C         142.1237  142.0080  167.2543 C.ar    1  UNL1        0.0479
     24 C         140.8512  141.8556  166.4749 C.ar    1  UNL1        0.0145
     25 C         140.7937  142.2902  165.0404 C.ar    1  UNL1        0.0013
     26 N         142.1812  141.5734  168.6888 N.pl3   1  UNL1       -0.3047
     27 C         141.7612  142.5176  169.7759 C.3     1  UNL1        0.1079
     28 C         141.8187  142.0830  171.2105 C.3     1  UNL1        0.0903
     29 N         142.2961  140.7041  171.5578 N.3     1  UNL1       -0.2946
     30 C         142.7162  139.7598  170.4706 C.3     1  UNL1        0.0903
     31 C         142.6587  140.1945  169.0362 C.3     1  UNL1        0.1079
     32 H         141.5378  140.2493  172.0662 H       1  UNL1        0.1233
@<TRIPOS>BOND
     1    14    15    1
     2    15     8    1
     3     8     9   ar
     4     9    10   ar
     5    10     1    1
     6     1     2   ar
     7     2     3   ar
     8     3     4   ar
     9     4     5   ar
    10     5    20    1
    11    20    21   ar
    12    21    22   ar
    13    22    23   ar
    14    23    26    1
    15    26    27    1
    16    27    28    1
    17    28    29    1
    18    29    30    1
    19    30    31    1
    20    23    24   ar
    21    24    25   ar
    22     5     6   ar
    23     6     7    1
    24    10    11   ar
    25    11    12   ar
    26    12    16    1
    27    16    17    1
    28    12    13   ar
    29    13    18    1
    30    18    19    1
    31    13     8   ar
    32     6     1   ar
    33    25    20   ar
    34    31    26    1
    35    29    32    1
