@<TRIPOS>MOLECULE
*****
 37 39 0 0 0
SMALL
GASTEIGER

@<TRIPOS>ATOM
      1 C         139.0311  142.5805  161.8413 C.2     1  UNL1        0.2485
      2 O         138.0682  143.7303  161.8597 O.2     1  UNL1       -0.2726
      3 N         139.9875  142.4214  160.6967 N.am    1  UNL1       -0.2823
      4 H         140.6196  141.6667  160.6846 H       1  UNL1        0.1549
      5 C         137.7250  138.0072  161.7168 C.3     1  UNL1        0.0949
      6 C         138.1121  139.4549  161.6514 C.2     1  UNL1        0.2269
      7 O         137.9961  140.2046  160.3574 O.2     1  UNL1       -0.2748
      8 N         138.6153  140.1529  162.8801 N.am    1  UNL1       -0.2655
      9 C         138.7844  139.5368  164.2372 C.3     1  UNL1        0.1206
     10 C         139.3113  140.5927  165.1633 C.ar    1  UNL1       -0.0030
     11 C         139.6687  140.5628  166.6197 C.ar    1  UNL1        0.0155
     12 C         140.1827  141.8016  167.2913 C.ar    1  UNL1        0.1054
     13 C         140.3393  143.0703  166.5065 C.ar    1  UNL1        0.0181
     14 C         139.9818  143.1002  165.0501 C.ar    1  UNL1       -0.0011
     15 C         139.4678  141.8614  164.3784 C.ar    1  UNL1        0.0022
     16 C         139.0377  141.5895  162.9674 C.3     1  UNL1        0.1750
     17 S         140.5402  141.7718  168.7479 S.O2    1  UNL1        0.0104
     18 C         140.8977  141.7419  170.2043 C.3     1  UNL1        0.1816
     19 O         140.3506  143.2577  168.8249 O.2     1  UNL1       -0.1686
     20 O         140.7299  140.2859  168.6708 O.2     1  UNL1       -0.1686
     21 C         139.9810  143.4123  159.5706 C.ar    1  UNL1        0.0503
     22 C         139.2762  143.0850  158.2876 C.ar    1  UNL1        0.0144
     23 C         139.2696  144.0759  157.1615 C.ar    1  UNL1       -0.0002
     24 C         139.9678  145.3941  157.3185 C.ar    1  UNL1        0.0182
     25 C         140.6726  145.7215  158.6015 C.ar    1  UNL1       -0.0002
     26 C         140.6792  144.7306  159.7276 C.ar    1  UNL1        0.0144
     27 C         139.9613  146.3851  156.1925 C.3     1  UNL1        0.2827
     28 O         139.2742  147.3842  157.0756 O.3     1  UNL1       -0.3692
     29 H         139.1222  148.2037  156.5794 H       1  UNL1        0.2112
     30 C         139.9548  147.3760  155.0664 C.3     1  UNL1        0.4311
     31 F         139.9483  148.3669  153.9403 F       1  UNL1       -0.1669
     32 F         138.4561  147.3239  155.0291 F       1  UNL1       -0.1669
     33 F         140.8326  147.4780  155.0071 F       1  UNL1       -0.1669
     34 C         140.6483  145.3860  155.3094 C.3     1  UNL1        0.4311
     35 F         141.3353  144.3870  154.4262 F       1  UNL1       -0.1669
     36 F         139.9548  145.2080  154.7879 F       1  UNL1       -0.1669
     37 F         142.0445  145.3199  155.8538 F       1  UNL1       -0.1669
@<TRIPOS>BOND
     1     5     6    1
     2     6     7    2
     3     6     8   am
     4     8     9    1
     5     9    10    1
     6    10    11   ar
     7    11    12   ar
     8    12    17    1
     9    17    18    1
    10    17    19    2
    11    17    20    2
    12    12    13   ar
    13    13    14   ar
    14    14    15   ar
    15    15    16    1
    16    16     1    1
    17     1     2    2
    18     1     3   am
    19     3    21    1
    20    21    22   ar
    21    22    23   ar
    22    23    24   ar
    23    24    27    1
    24    27    28    1
    25    27    30    1
    26    30    31    1
    27    30    32    1
    28    30    33    1
    29    27    34    1
    30    34    35    1
    31    34    36    1
    32    34    37    1
    33    24    25   ar
    34    25    26   ar
    35    16     8    1
    36    26    21   ar
    37    15    10   ar
    38     3     4    1
    39    28    29    1
@<TRIPOS>MOLECULE
*****
 37 39 0 0 0
SMALL
GASTEIGER

@<TRIPOS>ATOM
      1 C         142.9533  141.1322  159.0069 C.2     1  UNL1        0.2485
      2 O         143.5898  140.9490  160.3527 O.2     1  UNL1       -0.2726
      3 N         141.6671  141.8942  158.8832 N.am    1  UNL1       -0.2823
      4 H         141.2493  142.0145  157.9999 H       1  UNL1        0.1549
      5 C         141.5992  137.3177  156.5066 C.3     1  UNL1        0.0949
      6 C         141.9422  138.5027  157.3599 C.2     1  UNL1        0.2269
      7 O         141.0893  138.8453  158.5452 O.2     1  UNL1       -0.2748
      8 N         143.1381  139.3450  157.0279 N.am    1  UNL1       -0.2655
      9 C         144.0793  139.1267  155.8804 C.3     1  UNL1        0.1206
     10 C         145.1257  140.2003  155.9284 C.ar    1  UNL1       -0.0030
     11 C         146.3085  140.4888  155.0523 C.ar    1  UNL1        0.0155
     12 C         147.1970  141.6593  155.3532 C.ar    1  UNL1        0.1054
     13 C         146.9025  142.5413  156.5303 C.ar    1  UNL1        0.0181
     14 C         145.7197  142.2528  157.4064 C.ar    1  UNL1       -0.0011
     15 C         144.8312  141.0823  157.1054 C.ar    1  UNL1        0.0022
     16 C         143.6029  140.5537  157.7849 C.3     1  UNL1        0.1750
     17 S         148.3799  141.9478  154.4771 S.O2    1  UNL1        0.0104
     18 C         149.5628  142.2363  153.6011 C.3     1  UNL1        0.1816
     19 O         147.4662  142.1201  153.3001 O.2     1  UNL1       -0.1686
     20 O         149.2936  141.7755  155.6542 O.2     1  UNL1       -0.1686
     21 C         141.0175  142.4727  160.1052 C.ar    1  UNL1        0.0503
     22 C         141.2288  143.9160  160.4548 C.ar    1  UNL1        0.0144
     23 C         140.5792  144.4945  161.6769 C.ar    1  UNL1       -0.0002
     24 C         139.7185  143.6297  162.5493 C.ar    1  UNL1        0.0182
     25 C         139.5072  142.1864  162.1997 C.ar    1  UNL1       -0.0002
     26 C         140.1568  141.6079  160.9776 C.ar    1  UNL1        0.0144
     27 C         139.0689  144.2082  163.7714 C.3     1  UNL1        0.2827
     28 O         137.9219  144.6905  162.9335 O.3     1  UNL1       -0.3692
     29 H         137.2787  145.1471  163.4980 H       1  UNL1        0.2112
     30 C         138.4193  144.7866  164.9935 C.3     1  UNL1        0.4311
     31 F         137.7698  145.3650  166.2156 F       1  UNL1       -0.1669
     32 F         137.3118  143.7813  164.8806 F       1  UNL1       -0.1669
     33 F         139.0217  145.4174  165.1476 F       1  UNL1       -0.1669
     34 C         140.2158  143.7259  164.6092 C.3     1  UNL1        0.4311
     35 F         141.3627  143.2435  165.4471 F       1  UNL1       -0.1669
     36 F         139.8235  142.9944  164.9185 F       1  UNL1       -0.1669
     37 F         141.2795  144.7625  164.3998 F       1  UNL1       -0.1669
@<TRIPOS>BOND
     1     5     6    1
     2     6     7    2
     3     6     8   am
     4     8     9    1
     5     9    10    1
     6    10    11   ar
     7    11    12   ar
     8    12    17    1
     9    17    18    1
    10    17    19    2
    11    17    20    2
    12    12    13   ar
    13    13    14   ar
    14    14    15   ar
    15    15    16    1
    16    16     1    1
    17     1     2    2
    18     1     3   am
    19     3    21    1
    20    21    22   ar
    21    22    23   ar
    22    23    24   ar
    23    24    27    1
    24    27    28    1
    25    27    30    1
    26    30    31    1
    27    30    32    1
    28    30    33    1
    29    27    34    1
    30    34    35    1
    31    34    36    1
    32    34    37    1
    33    24    25   ar
    34    25    26   ar
    35    16     8    1
    36    26    21   ar
    37    15    10   ar
    38     3     4    1
    39    28    29    1
@<TRIPOS>MOLECULE
*****
 37 39 0 0 0
SMALL
GASTEIGER

@<TRIPOS>ATOM
      1 C         142.5653  137.9856  158.2123 C.2     1  UNL1        0.2485
      2 O         143.7135  138.8992  157.9015 O.2     1  UNL1       -0.2726
      3 N         141.9308  138.0142  159.5713 N.am    1  UNL1       -0.2823
      4 H         141.1771  137.4145  159.7753 H       1  UNL1        0.1549
      5 C         138.8897  138.6232  155.2593 C.3     1  UNL1        0.0949
      6 C         140.0276  138.5195  156.2312 C.2     1  UNL1        0.2269
      7 O         140.3081  139.6464  157.1805 O.2     1  UNL1       -0.2748
      8 N         140.8849  137.2888  156.2537 N.am    1  UNL1       -0.2655
      9 C         140.7264  136.0875  155.3696 C.3     1  UNL1        0.1206
     10 C         141.7948  135.0997  155.7337 C.ar    1  UNL1       -0.0030
     11 C         142.1279  133.7386  155.1986 C.ar    1  UNL1        0.0155
     12 C         143.2798  132.9682  155.7727 C.ar    1  UNL1        0.1054
     13 C         144.0987  133.5590  156.8819 C.ar    1  UNL1        0.0181
     14 C         143.7656  134.9202  157.4171 C.ar    1  UNL1       -0.0011
     15 C         142.6137  135.6905  156.8430 C.ar    1  UNL1        0.0022
     16 C         142.0514  137.0434  157.1643 C.3     1  UNL1        0.1750
     17 S         143.6129  131.6070  155.2376 S.O2    1  UNL1        0.0104
     18 C         143.9459  130.2459  154.7025 C.3     1  UNL1        0.1816
     19 O         145.0176  131.7519  155.7433 O.2     1  UNL1       -0.1686
     20 O         142.2081  131.4621  154.7320 O.2     1  UNL1       -0.1686
     21 C         142.4447  138.9563  160.6193 C.ar    1  UNL1        0.0503
     22 C         143.5856  138.5459  161.5022 C.ar    1  UNL1        0.0144
     23 C         144.0995  139.4880  162.5502 C.ar    1  UNL1       -0.0002
     24 C         143.4724  140.8406  162.7152 C.ar    1  UNL1        0.0182
     25 C         142.3314  141.2510  161.8322 C.ar    1  UNL1       -0.0002
     26 C         141.8175  140.3088  160.7842 C.ar    1  UNL1        0.0144
     27 C         143.9862  141.7828  163.7632 C.3     1  UNL1        0.2827
     28 O         143.5657  140.8208  164.8345 O.3     1  UNL1       -0.3692
     29 H         143.7883  141.1879  165.7043 H       1  UNL1        0.2112
     30 C         144.5001  142.7251  164.8111 C.3     1  UNL1        0.4311
     31 F         145.0139  143.6673  165.8590 F       1  UNL1       -0.1669
     32 F         143.0934  143.0004  165.2533 F       1  UNL1       -0.1669
     33 F         145.3615  142.6316  164.6274 F       1  UNL1       -0.1669
     34 C         144.4068  142.7448  162.6919 C.3     1  UNL1        0.4311
     35 F         144.8273  143.7069  161.6206 F       1  UNL1       -0.1669
     36 F         143.7892  143.3597  162.8504 F       1  UNL1       -0.1669
     37 F         145.5810  142.0744  162.0425 F       1  UNL1       -0.1669
@<TRIPOS>BOND
     1     5     6    1
     2     6     7    2
     3     6     8   am
     4     8     9    1
     5     9    10    1
     6    10    11   ar
     7    11    12   ar
     8    12    17    1
     9    17    18    1
    10    17    19    2
    11    17    20    2
    12    12    13   ar
    13    13    14   ar
    14    14    15   ar
    15    15    16    1
    16    16     1    1
    17     1     2    2
    18     1     3   am
    19     3    21    1
    20    21    22   ar
    21    22    23   ar
    22    23    24   ar
    23    24    27    1
    24    27    28    1
    25    27    30    1
    26    30    31    1
    27    30    32    1
    28    30    33    1
    29    27    34    1
    30    34    35    1
    31    34    36    1
    32    34    37    1
    33    24    25   ar
    34    25    26   ar
    35    16     8    1
    36    26    21   ar
    37    15    10   ar
    38     3     4    1
    39    28    29    1
@<TRIPOS>MOLECULE
*****
 37 39 0 0 0
SMALL
GASTEIGER

@<TRIPOS>ATOM
      1 C         141.7080  139.1411  158.8200 C.2     1  UNL1        0.2485
      2 O         142.5246  138.3332  159.7845 O.2     1  UNL1       -0.2726
      3 N         140.4380  139.7956  159.2770 N.am    1  UNL1       -0.2823
      4 H         139.9020  140.3259  158.6439 H       1  UNL1        0.1549
      5 C         139.6170  137.4645  154.8890 C.3     1  UNL1        0.0949
      6 C         140.1966  137.9483  156.1852 C.2     1  UNL1        0.2269
      7 O         139.5061  137.6341  157.4791 O.2     1  UNL1       -0.2748
      8 N         141.4666  138.7463  156.1873 N.am    1  UNL1       -0.2655
      9 C         142.2650  139.1362  154.9788 C.3     1  UNL1        0.1206
     10 C         143.4532  139.9255  155.4429 C.ar    1  UNL1       -0.0030
     11 C         144.5851  140.5676  154.6970 C.ar    1  UNL1        0.0155
     12 C         145.6530  141.3077  155.4466 C.ar    1  UNL1        0.1054
     13 C         145.5889  141.4055  156.9420 C.ar    1  UNL1        0.0181
     14 C         144.4570  140.7634  157.6879 C.ar    1  UNL1       -0.0011
     15 C         143.3891  140.0234  156.9383 C.ar    1  UNL1        0.0022
     16 C         142.1614  139.2946  157.3984 C.3     1  UNL1        0.1750
     17 S         146.7850  141.9499  154.7008 S.O2    1  UNL1        0.0104
     18 C         147.9169  142.5920  153.9549 C.3     1  UNL1        0.1816
     19 O         147.4450  142.2979  156.0020 O.2     1  UNL1       -0.1686
     20 O         146.1250  141.6019  153.3995 O.2     1  UNL1       -0.1686
     21 C         139.9846  139.6421  160.6986 C.ar    1  UNL1        0.0503
     22 C         140.3068  140.7044  161.7074 C.ar    1  UNL1        0.0144
     23 C         139.8535  140.5509  163.1290 C.ar    1  UNL1       -0.0002
     24 C         139.0779  139.3351  163.5417 C.ar    1  UNL1        0.0182
     25 C         138.7557  138.2728  162.5328 C.ar    1  UNL1       -0.0002
     26 C         139.2091  138.4263  161.1113 C.ar    1  UNL1        0.0144
     27 C         138.6245  139.1815  164.9633 C.3     1  UNL1        0.2827
     28 O         137.8006  140.4284  164.8353 O.3     1  UNL1       -0.3692
     29 H         137.3466  140.6035  165.6744 H       1  UNL1        0.2112
     30 C         138.1712  139.0279  166.3849 C.3     1  UNL1        0.4311
     31 F         137.7178  138.8742  167.8064 F       1  UNL1       -0.1669
     32 F         139.4135  139.7239  166.8563 F       1  UNL1       -0.1669
     33 F         137.4105  138.6089  166.2110 F       1  UNL1       -0.1669
     34 C         139.4485  137.9346  165.0913 C.3     1  UNL1        0.4311
     35 F         140.2724  136.6877  165.2193 F       1  UNL1       -0.1669
     36 F         138.7732  137.3633  165.1375 F       1  UNL1       -0.1669
     37 F         140.8640  138.4301  165.0610 F       1  UNL1       -0.1669
@<TRIPOS>BOND
     1     5     6    1
     2     6     7    2
     3     6     8   am
     4     8     9    1
     5     9    10    1
     6    10    11   ar
     7    11    12   ar
     8    12    17    1
     9    17    18    1
    10    17    19    2
    11    17    20    2
    12    12    13   ar
    13    13    14   ar
    14    14    15   ar
    15    15    16    1
    16    16     1    1
    17     1     2    2
    18     1     3   am
    19     3    21    1
    20    21    22   ar
    21    22    23   ar
    22    23    24   ar
    23    24    27    1
    24    27    28    1
    25    27    30    1
    26    30    31    1
    27    30    32    1
    28    30    33    1
    29    27    34    1
    30    34    35    1
    31    34    36    1
    32    34    37    1
    33    24    25   ar
    34    25    26   ar
    35    16     8    1
    36    26    21   ar
    37    15    10   ar
    38     3     4    1
    39    28    29    1
@<TRIPOS>MOLECULE
*****
 37 39 0 0 0
SMALL
GASTEIGER

@<TRIPOS>ATOM
      1 C         142.0876  137.9234  157.5665 C.2     1  UNL1        0.2485
      2 O         140.9241  138.2630  158.4500 O.2     1  UNL1       -0.2726
      3 N         143.3700  138.6923  157.6864 N.am    1  UNL1       -0.2823
      4 H         144.1337  138.4694  157.1065 H       1  UNL1        0.1549
      5 C         139.7464  137.9696  153.4249 C.3     1  UNL1        0.0949
      6 C         140.4522  138.0566  154.7456 C.2     1  UNL1        0.2269
      7 O         140.3931  139.3241  155.5454 O.2     1  UNL1       -0.2748
      8 N         141.2172  136.8760  155.2663 N.am    1  UNL1       -0.2655
      9 C         141.3648  135.5495  154.5820 C.3     1  UNL1        0.1206
     10 C         142.2076  134.6683  155.4556 C.ar    1  UNL1       -0.0030
     11 C         142.6834  133.2550  155.2944 C.ar    1  UNL1        0.0155
     12 C         143.5325  132.6237  156.3576 C.ar    1  UNL1        0.1054
     13 C         143.9059  133.4057  157.5819 C.ar    1  UNL1        0.0181
     14 C         143.4301  134.8191  157.7431 C.ar    1  UNL1       -0.0011
     15 C         142.5810  135.4504  156.6799 C.ar    1  UNL1        0.0022
     16 C         141.9689  136.8148  156.5630 C.3     1  UNL1        0.1750
     17 S         144.0083  131.2102  156.1965 S.O2    1  UNL1        0.0104
     18 C         144.4840  129.7969  156.0353 C.3     1  UNL1        0.1816
     19 O         145.4281  131.6926  156.1572 O.2     1  UNL1       -0.1686
     20 O         142.5885  130.7279  156.2357 O.2     1  UNL1       -0.1686
     21 C         143.4887  139.8009  158.6899 C.ar    1  UNL1        0.0503
     22 C         143.4248  139.4946  160.1569 C.ar    1  UNL1        0.0144
     23 C         143.5435  140.6031  161.1604 C.ar    1  UNL1       -0.0002
     24 C         143.7262  142.0179  160.6968 C.ar    1  UNL1        0.0182
     25 C         143.7901  142.3242  159.2298 C.ar    1  UNL1       -0.0002
     26 C         143.6714  141.2157  158.2263 C.ar    1  UNL1        0.0144
     27 C         143.8449  143.1266  161.7003 C.3     1  UNL1        0.2827
     28 O         142.7525  143.8783  160.9992 O.3     1  UNL1       -0.3692
     29 H         142.5895  144.7162  161.4598 H       1  UNL1        0.2112
     30 C         143.9637  144.2352  162.7038 C.3     1  UNL1        0.4311
     31 F         144.0826  145.3437  163.7072 F       1  UNL1       -0.1669
     32 F         142.6028  143.8982  163.2371 F       1  UNL1       -0.1669
     33 F         144.7699  144.5125  162.4635 F       1  UNL1       -0.1669
     34 C         144.9373  142.3748  162.4014 C.3     1  UNL1        0.4311
     35 F         146.0298  141.6231  163.1025 F       1  UNL1       -0.1669
     36 F         145.5308  142.4093  161.7447 F       1  UNL1       -0.1669
     37 F         144.3495  142.0463  163.7417 F       1  UNL1       -0.1669
@<TRIPOS>BOND
     1     5     6    1
     2     6     7    2
     3     6     8   am
     4     8     9    1
     5     9    10    1
     6    10    11   ar
     7    11    12   ar
     8    12    17    1
     9    17    18    1
    10    17    19    2
    11    17    20    2
    12    12    13   ar
    13    13    14   ar
    14    14    15   ar
    15    15    16    1
    16    16     1    1
    17     1     2    2
    18     1     3   am
    19     3    21    1
    20    21    22   ar
    21    22    23   ar
    22    23    24   ar
    23    24    27    1
    24    27    28    1
    25    27    30    1
    26    30    31    1
    27    30    32    1
    28    30    33    1
    29    27    34    1
    30    34    35    1
    31    34    36    1
    32    34    37    1
    33    24    25   ar
    34    25    26   ar
    35    16     8    1
    36    26    21   ar
    37    15    10   ar
    38     3     4    1
    39    28    29    1
@<TRIPOS>MOLECULE
*****
 37 39 0 0 0
SMALL
GASTEIGER

@<TRIPOS>ATOM
      1 C         142.0317  142.5429  161.9547 C.2     1  UNL1        0.2485
      2 O         143.0330  143.4979  162.5337 O.2     1  UNL1       -0.2726
      3 N         141.2014  141.6849  162.8627 N.am    1  UNL1       -0.2823
      4 H         140.5442  141.0581  162.4827 H       1  UNL1        0.1549
      5 C         143.0182  138.8395  159.1356 C.3     1  UNL1        0.0949
      6 C         142.7409  139.9477  160.1076 C.2     1  UNL1        0.2269
      7 O         143.0179  139.7507  161.5685 O.2     1  UNL1       -0.2748
      8 N         142.1866  141.2530  159.6186 N.am    1  UNL1       -0.2655
      9 C         141.8610  141.5946  158.1948 C.3     1  UNL1        0.1206
     10 C         141.3337  142.9985  158.1638 C.ar    1  UNL1       -0.0030
     11 C         140.8538  143.8658  157.0380 C.ar    1  UNL1        0.0155
     12 C         140.3737  145.2592  157.3169 C.ar    1  UNL1        0.1054
     13 C         140.3735  145.7853  158.7216 C.ar    1  UNL1        0.0181
     14 C         140.8534  144.9181  159.8474 C.ar    1  UNL1       -0.0011
     15 C         141.3335  143.5247  159.5685 C.ar    1  UNL1        0.0022
     16 C         141.8606  142.4458  160.4676 C.3     1  UNL1        0.1750
     17 S         139.8938  146.1266  156.1911 S.O2    1  UNL1        0.0104
     18 C         139.4138  146.9940  155.0654 C.3     1  UNL1        0.1816
     19 O         140.4420  145.1434  155.1998 O.2     1  UNL1       -0.1686
     20 O         139.3456  147.1098  157.1824 O.2     1  UNL1       -0.1686
     21 C         141.3725  141.7819  164.3498 C.ar    1  UNL1        0.0503
     22 C         142.4456  140.9886  165.0347 C.ar    1  UNL1        0.0144
     23 C         142.6166  141.0857  166.5217 C.ar    1  UNL1       -0.0002
     24 C         141.7146  141.9761  167.3238 C.ar    1  UNL1        0.0182
     25 C         140.6414  142.7694  166.6389 C.ar    1  UNL1       -0.0002
     26 C         140.4704  142.6723  165.1519 C.ar    1  UNL1        0.0144
     27 C         141.8856  142.0732  168.8109 C.3     1  UNL1        0.2827
     28 O         143.2493  142.6665  168.6154 O.3     1  UNL1       -0.3692
     29 H         143.6474  142.8536  169.4799 H       1  UNL1        0.2112
     30 C         142.0565  142.1702  170.2980 C.3     1  UNL1        0.4311
     31 F         142.2274  142.2673  171.7850 F       1  UNL1       -0.1669
     32 F         142.0897  143.6665  170.1965 F       1  UNL1       -0.1669
     33 F         142.0493  141.3004  170.4646 F       1  UNL1       -0.1669
     34 C         140.5218  141.4798  169.0064 C.3     1  UNL1        0.4311
     35 F         139.1581  140.8863  169.2018 F       1  UNL1       -0.1669
     36 F         140.7082  140.6741  168.6891 F       1  UNL1       -0.1669
     37 F         139.7208  142.5993  169.6022 F       1  UNL1       -0.1669
@<TRIPOS>BOND
     1     5     6    1
     2     6     7    2
     3     6     8   am
     4     8     9    1
     5     9    10    1
     6    10    11   ar
     7    11    12   ar
     8    12    17    1
     9    17    18    1
    10    17    19    2
    11    17    20    2
    12    12    13   ar
    13    13    14   ar
    14    14    15   ar
    15    15    16    1
    16    16     1    1
    17     1     2    2
    18     1     3   am
    19     3    21    1
    20    21    22   ar
    21    22    23   ar
    22    23    24   ar
    23    24    27    1
    24    27    28    1
    25    27    30    1
    26    30    31    1
    27    30    32    1
    28    30    33    1
    29    27    34    1
    30    34    35    1
    31    34    36    1
    32    34    37    1
    33    24    25   ar
    34    25    26   ar
    35    16     8    1
    36    26    21   ar
    37    15    10   ar
    38     3     4    1
    39    28    29    1
@<TRIPOS>MOLECULE
*****
 37 39 0 0 0
SMALL
GASTEIGER

@<TRIPOS>ATOM
      1 C         142.3953  138.0057  157.8237 C.2     1  UNL1        0.2485
      2 O         143.6604  138.7644  157.5522 O.2     1  UNL1       -0.2726
      3 N         141.7144  138.1346  159.1541 N.am    1  UNL1       -0.2823
      4 H         140.8840  137.6366  159.3323 H       1  UNL1        0.1549
      5 C         138.5106  138.7715  155.1859 C.3     1  UNL1        0.0949
      6 C         139.7169  138.6248  156.0652 C.2     1  UNL1        0.2269
      7 O         140.0602  139.7001  157.0530 O.2     1  UNL1       -0.2748
      8 N         140.5800  137.4028  155.9567 N.am    1  UNL1       -0.2655
      9 C         140.3634  136.2507  155.0208 C.3     1  UNL1        0.1206
     10 C         141.4607  135.2541  155.2507 C.ar    1  UNL1       -0.0030
     11 C         141.7607  133.9278  154.6177 C.ar    1  UNL1        0.0155
     12 C         142.9555  133.1376  155.0627 C.ar    1  UNL1        0.1054
     13 C         143.8502  133.6737  156.1407 C.ar    1  UNL1        0.0181
     14 C         143.5502  135.0001  156.7736 C.ar    1  UNL1       -0.0011
     15 C         142.3554  135.7903  156.3286 C.ar    1  UNL1        0.0022
     16 C         141.8111  137.1182  156.7649 C.3     1  UNL1        0.1750
     17 S         143.2556  131.8111  154.4297 S.O2    1  UNL1        0.0104
     18 C         143.5556  130.4848  153.7968 C.3     1  UNL1        0.1816
     19 O         144.3328  131.5701  155.4454 O.2     1  UNL1       -0.1686
     20 O         142.1784  132.0521  153.4141 O.2     1  UNL1       -0.1686
     21 C         142.2986  139.0221  160.2128 C.ar    1  UNL1        0.0503
     22 C         143.3769  138.5019  161.1165 C.ar    1  UNL1        0.0144
     23 C         143.9612  139.3894  162.1753 C.ar    1  UNL1       -0.0002
     24 C         143.4671  140.7971  162.3303 C.ar    1  UNL1        0.0182
     25 C         142.3888  141.3174  161.4266 C.ar    1  UNL1       -0.0002
     26 C         141.8045  140.4298  160.3679 C.ar    1  UNL1        0.0144
     27 C         144.0513  141.6847  163.3890 C.3     1  UNL1        0.2827
     28 O         144.7997  142.4477  162.3365 O.3     1  UNL1       -0.3692
     29 H         145.3172  143.1533  162.7552 H       1  UNL1        0.2112
     30 C         144.6354  142.5723  164.4478 C.3     1  UNL1        0.4311
     31 F         145.2196  143.4598  165.5066 F       1  UNL1       -0.1669
     32 F         146.0012  142.0280  164.1506 F       1  UNL1       -0.1669
     33 F         143.8771  142.9552  164.6983 F       1  UNL1       -0.1669
     34 C         143.3029  140.9217  164.4415 C.3     1  UNL1        0.4311
     35 F         142.5544  140.1588  165.4940 F       1  UNL1       -0.1669
     36 F         142.4974  141.2374  164.2514 F       1  UNL1       -0.1669
     37 F         144.3660  140.1237  165.1364 F       1  UNL1       -0.1669
@<TRIPOS>BOND
     1     5     6    1
     2     6     7    2
     3     6     8   am
     4     8     9    1
     5     9    10    1
     6    10    11   ar
     7    11    12   ar
     8    12    17    1
     9    17    18    1
    10    17    19    2
    11    17    20    2
    12    12    13   ar
    13    13    14   ar
    14    14    15   ar
    15    15    16    1
    16    16     1    1
    17     1     2    2
    18     1     3   am
    19     3    21    1
    20    21    22   ar
    21    22    23   ar
    22    23    24   ar
    23    24    27    1
    24    27    28    1
    25    27    30    1
    26    30    31    1
    27    30    32    1
    28    30    33    1
    29    27    34    1
    30    34    35    1
    31    34    36    1
    32    34    37    1
    33    24    25   ar
    34    25    26   ar
    35    16     8    1
    36    26    21   ar
    37    15    10   ar
    38     3     4    1
    39    28    29    1
@<TRIPOS>MOLECULE
*****
 37 39 0 0 0
SMALL
GASTEIGER

@<TRIPOS>ATOM
      1 C         140.4224  141.3838  161.2293 C.2     1  UNL1        0.2485
      2 O         141.7409  141.6736  161.8829 O.2     1  UNL1       -0.2726
      3 N         139.2633  140.9114  162.0561 N.am    1  UNL1       -0.2823
      4 H         138.3978  140.7211  161.6271 H       1  UNL1        0.1549
      5 C         139.8717  138.0174  157.9127 C.3     1  UNL1        0.0949
      6 C         140.0497  139.0002  159.0318 C.2     1  UNL1        0.2269
      7 O         140.1859  138.5124  160.4437 O.2     1  UNL1       -0.2748
      8 N         140.0914  140.4707  158.7390 N.am    1  UNL1       -0.2655
      9 C         139.9692  141.1039  157.3847 C.3     1  UNL1        0.1206
     10 C         140.0650  142.5908  157.5577 C.ar    1  UNL1       -0.0030
     11 C         140.0104  143.7214  156.5735 C.ar    1  UNL1        0.0155
     12 C         140.1373  145.1378  157.0506 C.ar    1  UNL1        0.1054
     13 C         140.3187  145.4236  158.5118 C.ar    1  UNL1        0.0181
     14 C         140.3732  144.2930  159.4961 C.ar    1  UNL1       -0.0011
     15 C         140.2464  142.8766  159.0190 C.ar    1  UNL1        0.0022
     16 C         140.2627  141.5664  159.7490 C.3     1  UNL1        0.1750
     17 S         140.0827  146.2685  156.0663 S.O2    1  UNL1        0.0104
     18 C         140.0281  147.3991  155.0821 C.3     1  UNL1        0.1816
     19 O         140.7707  145.4124  155.0447 O.2     1  UNL1       -0.1686
     20 O         139.3947  147.1245  157.0879 O.2     1  UNL1       -0.1686
     21 C         139.4229  140.7288  163.5364 C.ar    1  UNL1        0.0503
     22 C         139.6844  139.3635  164.0998 C.ar    1  UNL1        0.0144
     23 C         139.8440  139.1809  165.5801 C.ar    1  UNL1       -0.0002
     24 C         139.7422  140.3637  166.4968 C.ar    1  UNL1        0.0182
     25 C         139.4807  141.7291  165.9334 C.ar    1  UNL1       -0.0002
     26 C         139.3210  141.9116  164.4531 C.ar    1  UNL1        0.0144
     27 C         139.9018  140.1813  167.9771 C.3     1  UNL1        0.2827
     28 O         138.6687  139.3276  168.0050 O.3     1  UNL1       -0.3692
     29 H         138.5003  139.0323  168.9135 H       1  UNL1        0.2112
     30 C         140.0615  139.9989  169.4574 C.3     1  UNL1        0.4311
     31 F         140.2212  139.8164  170.9377 F       1  UNL1       -0.1669
     32 F         138.8013  140.7787  169.6895 F       1  UNL1       -0.1669
     33 F         140.8115  139.5287  169.4280 F       1  UNL1       -0.1669
     34 C         141.1348  141.0350  167.9493 C.3     1  UNL1        0.4311
     35 F         142.3680  141.8886  167.9214 F       1  UNL1       -0.1669
     36 F         141.6549  140.4596  167.5214 F       1  UNL1       -0.1669
     37 F         140.7193  142.2958  168.6476 F       1  UNL1       -0.1669
@<TRIPOS>BOND
     1     5     6    1
     2     6     7    2
     3     6     8   am
     4     8     9    1
     5     9    10    1
     6    10    11   ar
     7    11    12   ar
     8    12    17    1
     9    17    18    1
    10    17    19    2
    11    17    20    2
    12    12    13   ar
    13    13    14   ar
    14    14    15   ar
    15    15    16    1
    16    16     1    1
    17     1     2    2
    18     1     3   am
    19     3    21    1
    20    21    22   ar
    21    22    23   ar
    22    23    24   ar
    23    24    27    1
    24    27    28    1
    25    27    30    1
    26    30    31    1
    27    30    32    1
    28    30    33    1
    29    27    34    1
    30    34    35    1
    31    34    36    1
    32    34    37    1
    33    24    25   ar
    34    25    26   ar
    35    16     8    1
    36    26    21   ar
    37    15    10   ar
    38     3     4    1
    39    28    29    1
@<TRIPOS>MOLECULE
*****
 37 39 0 0 0
SMALL
GASTEIGER

@<TRIPOS>ATOM
      1 C         141.9452  141.0829  162.0886 C.2     1  UNL1        0.2485
      2 O         143.2302  140.9630  162.8530 O.2     1  UNL1       -0.2726
      3 N         140.6373  141.1234  162.8219 N.am    1  UNL1       -0.2823
      4 H         139.7938  141.2020  162.3202 H       1  UNL1        0.1549
      5 C         141.2254  144.9090  159.3540 C.3     1  UNL1        0.0949
      6 C         141.4370  143.7659  160.3018 C.2     1  UNL1        0.2269
      7 O         141.3511  143.9933  161.7820 O.2     1  UNL1       -0.2748
      8 N         141.7345  142.3955  159.7696 N.am    1  UNL1       -0.2655
      9 C         141.8506  142.0176  158.3226 C.3     1  UNL1        0.1206
     10 C         142.1560  140.5508  158.2496 C.ar    1  UNL1       -0.0030
     11 C         142.3773  139.6283  157.0877 C.ar    1  UNL1        0.0155
     12 C         142.6713  138.1772  157.3277 C.ar    1  UNL1        0.1054
     13 C         142.7439  137.6485  158.7296 C.ar    1  UNL1        0.0181
     14 C         142.5225  138.5710  159.8915 C.ar    1  UNL1       -0.0011
     15 C         142.2286  140.0221  159.6515 C.ar    1  UNL1        0.0022
     16 C         141.9681  141.1622  160.5908 C.3     1  UNL1        0.1750
     17 S         142.8926  137.2546  156.1658 S.O2    1  UNL1        0.0104
     18 C         143.1140  136.3321  155.0040 C.3     1  UNL1        0.1816
     19 O         141.5132  136.6942  156.3480 O.2     1  UNL1       -0.1686
     20 O         144.2720  137.8150  155.9837 O.2     1  UNL1       -0.1686
     21 C         140.6144  141.0440  164.3197 C.ar    1  UNL1        0.0503
     22 C         140.4209  142.2889  165.1338 C.ar    1  UNL1        0.0144
     23 C         140.3981  142.2096  166.6315 C.ar    1  UNL1       -0.0002
     24 C         140.5687  140.8853  167.3150 C.ar    1  UNL1        0.0182
     25 C         140.7621  139.6405  166.5009 C.ar    1  UNL1       -0.0002
     26 C         140.7850  139.7198  165.0032 C.ar    1  UNL1        0.0144
     27 C         140.5458  140.8059  168.8128 C.3     1  UNL1        0.2827
     28 O         139.4128  139.8253  168.7436 O.3     1  UNL1       -0.3692
     29 H         139.1547  139.5656  169.6418 H       1  UNL1        0.2112
     30 C         140.5230  140.7265  170.3105 C.3     1  UNL1        0.4311
     31 F         140.5003  140.6472  171.8082 F       1  UNL1       -0.1669
     32 F         139.2100  141.4514  170.3290 F       1  UNL1       -0.1669
     33 F         141.2910  140.2960  170.4076 F       1  UNL1       -0.1669
     34 C         141.6788  141.7865  168.8820 C.3     1  UNL1        0.4311
     35 F         142.8118  142.7671  168.9512 F       1  UNL1       -0.1669
     36 F         141.2089  142.4731  169.1857 F       1  UNL1       -0.1669
     37 F         142.8659  141.0039  168.4041 F       1  UNL1       -0.1669
@<TRIPOS>BOND
     1     5     6    1
     2     6     7    2
     3     6     8   am
     4     8     9    1
     5     9    10    1
     6    10    11   ar
     7    11    12   ar
     8    12    17    1
     9    17    18    1
    10    17    19    2
    11    17    20    2
    12    12    13   ar
    13    13    14   ar
    14    14    15   ar
    15    15    16    1
    16    16     1    1
    17     1     2    2
    18     1     3   am
    19     3    21    1
    20    21    22   ar
    21    22    23   ar
    22    23    24   ar
    23    24    27    1
    24    27    28    1
    25    27    30    1
    26    30    31    1
    27    30    32    1
    28    30    33    1
    29    27    34    1
    30    34    35    1
    31    34    36    1
    32    34    37    1
    33    24    25   ar
    34    25    26   ar
    35    16     8    1
    36    26    21   ar
    37    15    10   ar
    38     3     4    1
    39    28    29    1
