@<TRIPOS>MOLECULE
*****
 34 39 0 0 0
SMALL
GASTEIGER

@<TRIPOS>ATOM
      1 N         136.9742  137.6365  167.7017 N.pl3   1  UNL1       -0.2464
      2 C         138.0203  138.5120  167.0779 C.2     1  UNL1        0.3157
      3 N         138.5095  138.4294  165.6623 N.2     1  UNL1       -0.0614
      4 C         139.5524  139.4902  165.4697 C.3     1  UNL1        0.2309
      5 C         139.7078  140.2284  166.7662 C.ar    1  UNL1        0.0390
      6 C         140.5892  141.3729  167.1702 C.ar    1  UNL1        0.0008
      7 C         140.5236  141.9128  168.5680 C.ar    1  UNL1        0.0021
      8 C         139.5768  141.3083  169.5620 C.ar    1  UNL1        0.0299
      9 C         138.6954  140.1638  169.1580 C.ar    1  UNL1        0.1470
     10 F         137.7485  139.5592  170.1520 F       1  UNL1       -0.2039
     11 C         138.7609  139.6238  167.7602 C.ar    1  UNL1        0.1094
     12 H         136.5426  136.9297  167.1695 H       1  UNL1        0.2884
     13 H         136.7192  137.7688  168.6434 H       1  UNL1        0.2884
     14 C         140.6090  140.4380  164.9848 C.ar    1  UNL1        0.0297
     15 C         142.0284  140.2771  165.4428 C.ar    1  UNL1        0.0004
     16 C         143.0850  141.2249  164.9579 C.ar    1  UNL1       -0.0002
     17 C         142.7223  142.3338  164.0151 C.ar    1  UNL1        0.0001
     18 C         141.3030  142.4948  163.5571 C.ar    1  UNL1        0.0028
     19 C         140.2463  141.5469  164.0420 C.ar    1  UNL1        0.0005
     20 C         140.9403  143.6037  162.6143 C.ar    1  UNL1        0.0384
     21 C         139.6577  144.3585  162.8024 C.ar    1  UNL1        0.1022
     22 N         139.2949  145.4673  161.8597 N.ar    1  UNL1       -0.2224
     23 C         140.2146  145.8213  160.7288 C.ar    1  UNL1        0.1989
     24 N         141.4972  145.0665  160.5408 N.ar    1  UNL1       -0.2224
     25 C         141.8600  143.9576  161.4835 C.ar    1  UNL1        0.1022
     26 C         139.6179  138.9502  164.0718 C.ar    1  UNL1        0.0324
     27 C         138.3532  138.6899  163.3083 C.ar    1  UNL1        0.0210
     28 C         138.4188  138.1499  161.9104 C.ar    1  UNL1        0.0983
     29 N         139.7489  137.8702  161.2760 N.ar    1  UNL1       -0.2482
     30 C         141.0136  138.1304  162.0395 C.ar    1  UNL1        0.0585
     31 C         140.9480  138.6704  163.4374 C.ar    1  UNL1        0.0151
     32 C         142.3437  137.8507  161.4051 C.3     1  UNL1        0.0403
     33 C         143.1499  137.2939  160.2693 C.3     1  UNL1        0.0063
     34 C         143.8416  137.9230  161.4422 C.3     1  UNL1        0.0063
@<TRIPOS>BOND
     1     1     2    1
     2     2     3    2
     3     3     4    1
     4     4    14    1
     5    14    15   ar
     6    15    16   ar
     7    16    17   ar
     8    17    18   ar
     9    18    20    1
    10    20    21   ar
    11    21    22   ar
    12    22    23   ar
    13    23    24   ar
    14    24    25   ar
    15    18    19   ar
    16     4    26    1
    17    26    27   ar
    18    27    28   ar
    19    28    29   ar
    20    29    30   ar
    21    30    32    1
    22    32    33    1
    23    33    34    1
    24    30    31   ar
    25     4     5    1
    26     5     6   ar
    27     6     7   ar
    28     7     8   ar
    29     8     9   ar
    30     9    10    1
    31     9    11   ar
    32    11     2    1
    33    19    14   ar
    34    31    26   ar
    35    11     5   ar
    36    25    20   ar
    37    34    32    1
    38     1    12    1
    39     1    13    1
@<TRIPOS>MOLECULE
*****
 34 39 0 0 0
SMALL
GASTEIGER

@<TRIPOS>ATOM
      1 N         138.3491  143.0598  160.0980 N.pl3   1  UNL1       -0.2464
      2 C         139.1387  142.7975  161.3460 C.2     1  UNL1        0.3157
      3 N         139.1976  141.4996  162.0957 N.2     1  UNL1       -0.0614
      4 C         140.1034  141.6871  163.2765 C.3     1  UNL1        0.2309
      5 C         140.6043  143.1009  163.2566 C.ar    1  UNL1        0.0390
      6 C         141.5263  143.8520  164.1708 C.ar    1  UNL1        0.0008
      7 C         141.8521  145.2893  163.8919 C.ar    1  UNL1        0.0021
      8 C         141.2559  145.9756  162.6988 C.ar    1  UNL1        0.0299
      9 C         140.3339  145.2245  161.7846 C.ar    1  UNL1        0.1470
     10 F         139.7376  145.9108  160.5915 F       1  UNL1       -0.2039
     11 C         140.0081  143.7872  162.0635 C.ar    1  UNL1        0.1094
     12 H         137.8052  142.3423  159.6997 H       1  UNL1        0.2884
     13 H         138.3746  143.9495  159.6771 H       1  UNL1        0.2884
     14 C         140.9411  141.5741  164.5156 C.ar    1  UNL1        0.0297
     15 C         142.3700  141.1283  164.4169 C.ar    1  UNL1        0.0004
     16 C         143.2077  141.0153  165.6561 C.ar    1  UNL1       -0.0002
     17 C         142.6166  141.3480  166.9939 C.ar    1  UNL1        0.0001
     18 C         141.1877  141.7938  167.0927 C.ar    1  UNL1        0.0028
     19 C         140.3500  141.9069  165.8535 C.ar    1  UNL1        0.0005
     20 C         140.5965  142.1266  168.4305 C.ar    1  UNL1        0.0384
     21 C         140.6314  143.5387  168.9355 C.ar    1  UNL1        0.1022
     22 N         140.0402  143.8715  170.2732 N.ar    1  UNL1       -0.2224
     23 C         139.4142  142.7923  171.1060 C.ar    1  UNL1        0.1989
     24 N         139.3794  141.3803  170.6011 N.ar    1  UNL1       -0.2224
     25 C         139.9706  141.0475  169.2632 C.ar    1  UNL1        0.1022
     26 C         139.7776  140.2497  163.5554 C.ar    1  UNL1        0.0324
     27 C         140.2079  139.1827  162.5929 C.ar    1  UNL1        0.0210
     28 C         139.8821  137.7454  162.8718 C.ar    1  UNL1        0.0983
     29 N         139.1260  137.3750  164.1133 N.ar    1  UNL1       -0.2482
     30 C         138.6957  138.4420  165.0758 C.ar    1  UNL1        0.0585
     31 C         139.0215  139.8793  164.7968 C.ar    1  UNL1        0.0151
     32 C         137.9396  138.0716  166.3172 C.3     1  UNL1        0.0403
     33 C         137.1536  137.0689  167.1090 C.3     1  UNL1        0.0063
     34 C         137.4160  138.4327  167.6757 C.3     1  UNL1        0.0063
@<TRIPOS>BOND
     1     1     2    1
     2     2     3    2
     3     3     4    1
     4     4    14    1
     5    14    15   ar
     6    15    16   ar
     7    16    17   ar
     8    17    18   ar
     9    18    20    1
    10    20    21   ar
    11    21    22   ar
    12    22    23   ar
    13    23    24   ar
    14    24    25   ar
    15    18    19   ar
    16     4    26    1
    17    26    27   ar
    18    27    28   ar
    19    28    29   ar
    20    29    30   ar
    21    30    32    1
    22    32    33    1
    23    33    34    1
    24    30    31   ar
    25     4     5    1
    26     5     6   ar
    27     6     7   ar
    28     7     8   ar
    29     8     9   ar
    30     9    10    1
    31     9    11   ar
    32    11     2    1
    33    19    14   ar
    34    31    26   ar
    35    11     5   ar
    36    25    20   ar
    37    34    32    1
    38     1    12    1
    39     1    13    1
@<TRIPOS>MOLECULE
*****
 34 39 0 0 0
SMALL
GASTEIGER

@<TRIPOS>ATOM
      1 N         136.8187  137.6326  167.9466 N.pl3   1  UNL1       -0.2464
      2 C         137.9383  138.4773  167.4148 C.2     1  UNL1        0.3157
      3 N         138.5711  138.3516  166.0606 N.2     1  UNL1       -0.0614
      4 C         139.6456  139.3926  165.9527 C.3     1  UNL1        0.2309
      5 C         139.6770  140.1617  167.2401 C.ar    1  UNL1        0.0390
      6 C         140.5300  141.3040  167.7064 C.ar    1  UNL1        0.0008
      7 C         140.3278  141.8806  169.0763 C.ar    1  UNL1        0.0021
      8 C         139.2727  141.3149  169.9799 C.ar    1  UNL1        0.0299
      9 C         138.4196  140.1726  169.5137 C.ar    1  UNL1        0.1470
     10 F         137.3644  139.6069  170.4173 F       1  UNL1       -0.2039
     11 C         138.6218  139.5960  168.1438 C.ar    1  UNL1        0.1094
     12 H         136.4334  136.9183  167.3894 H       1  UNL1        0.2884
     13 H         136.4691  137.7926  168.8529 H       1  UNL1        0.2884
     14 C         140.7624  140.3131  165.5584 C.ar    1  UNL1        0.0297
     15 C         142.1360  140.1125  166.1271 C.ar    1  UNL1        0.0004
     16 C         143.2527  141.0330  165.7328 C.ar    1  UNL1       -0.0002
     17 C         142.9961  142.1540  164.7697 C.ar    1  UNL1        0.0001
     18 C         141.6227  142.3546  164.2010 C.ar    1  UNL1        0.0028
     19 C         140.5058  141.4341  164.5953 C.ar    1  UNL1        0.0005
     20 C         141.3660  143.4756  163.2380 C.ar    1  UNL1        0.0384
     21 C         140.2838  144.4749  163.5216 C.ar    1  UNL1        0.1022
     22 N         140.0270  145.5959  162.5587 N.ar    1  UNL1       -0.2224
     23 C         140.8524  145.7176  161.3121 C.ar    1  UNL1        0.1989
     24 N         141.9345  144.7183  161.0284 N.ar    1  UNL1       -0.2224
     25 C         142.1913  143.5973  161.9914 C.ar    1  UNL1        0.1022
     26 C         139.8478  138.8159  164.5827 C.ar    1  UNL1        0.0324
     27 C         140.8168  137.6893  164.3787 C.ar    1  UNL1        0.0210
     28 C         141.0189  137.1127  163.0089 C.ar    1  UNL1        0.0983
     29 N         140.2520  137.6627  161.8430 N.ar    1  UNL1       -0.2482
     30 C         139.2829  138.7893  162.0470 C.ar    1  UNL1        0.0585
     31 C         139.0808  139.3659  163.4169 C.ar    1  UNL1        0.0151
     32 C         138.5160  139.3393  160.8811 C.3     1  UNL1        0.0403
     33 C         137.2357  139.8587  160.2969 C.3     1  UNL1        0.0063
     34 C         138.4678  139.7726  159.4458 C.3     1  UNL1        0.0063
@<TRIPOS>BOND
     1     1     2    1
     2     2     3    2
     3     3     4    1
     4     4    14    1
     5    14    15   ar
     6    15    16   ar
     7    16    17   ar
     8    17    18   ar
     9    18    20    1
    10    20    21   ar
    11    21    22   ar
    12    22    23   ar
    13    23    24   ar
    14    24    25   ar
    15    18    19   ar
    16     4    26    1
    17    26    27   ar
    18    27    28   ar
    19    28    29   ar
    20    29    30   ar
    21    30    32    1
    22    32    33    1
    23    33    34    1
    24    30    31   ar
    25     4     5    1
    26     5     6   ar
    27     6     7   ar
    28     7     8   ar
    29     8     9   ar
    30     9    10    1
    31     9    11   ar
    32    11     2    1
    33    19    14   ar
    34    31    26   ar
    35    11     5   ar
    36    25    20   ar
    37    34    32    1
    38     1    12    1
    39     1    13    1
@<TRIPOS>MOLECULE
*****
 34 39 0 0 0
SMALL
GASTEIGER

@<TRIPOS>ATOM
      1 N         137.8569  139.8078  170.2328 N.pl3   1  UNL1       -0.2464
      2 C         139.0100  139.8854  169.2766 C.2     1  UNL1        0.3157
      3 N         138.9477  139.6389  167.7983 N.2     1  UNL1       -0.0614
      4 C         140.3270  139.8244  167.2389 C.3     1  UNL1        0.2309
      5 C         141.2419  140.1855  168.3715 C.ar    1  UNL1        0.0390
      6 C         142.7109  140.4849  168.4187 C.ar    1  UNL1        0.0008
      7 C         143.3659  140.8220  169.7253 C.ar    1  UNL1        0.0021
      8 C         142.5520  140.8597  170.9846 C.ar    1  UNL1        0.0299
      9 C         141.0829  140.5604  170.9374 C.ar    1  UNL1        0.1470
     10 F         140.2689  140.5981  172.1968 F       1  UNL1       -0.2039
     11 C         140.4279  140.2233  169.6308 C.ar    1  UNL1        0.1094
     12 H         136.9585  139.5770  169.9028 H       1  UNL1        0.2884
     13 H         137.9985  139.9876  171.1903 H       1  UNL1        0.2884
     14 C         141.5695  139.9394  166.4064 C.ar    1  UNL1        0.0297
     15 C         142.4853  138.7605  166.2589 C.ar    1  UNL1        0.0004
     16 C         143.7277  138.8755  165.4263 C.ar    1  UNL1       -0.0002
     17 C         144.0544  140.1693  164.7412 C.ar    1  UNL1        0.0001
     18 C         143.1386  141.3481  164.8887 C.ar    1  UNL1        0.0028
     19 C         141.8961  141.2332  165.7213 C.ar    1  UNL1        0.0005
     20 C         143.4652  142.6420  164.2037 C.ar    1  UNL1        0.0384
     21 C         143.6618  143.8900  165.0124 C.ar    1  UNL1        0.1022
     22 N         143.9884  145.1838  164.3275 N.ar    1  UNL1       -0.2224
     23 C         144.1184  145.2298  162.8338 C.ar    1  UNL1        0.1989
     24 N         143.9218  143.9818  162.0251 N.ar    1  UNL1       -0.2224
     25 C         143.5952  142.6879  162.7101 C.ar    1  UNL1        0.1022
     26 C         139.6719  139.4872  165.9323 C.ar    1  UNL1        0.0324
     27 C         139.4160  138.0546  165.5692 C.ar    1  UNL1        0.0210
     28 C         138.7609  137.7175  164.2626 C.ar    1  UNL1        0.0983
     29 N         138.3617  138.8131  163.3191 N.ar    1  UNL1       -0.2482
     30 C         138.6177  140.2458  163.6821 C.ar    1  UNL1        0.0585
     31 C         139.2728  140.5829  164.9887 C.ar    1  UNL1        0.0151
     32 C         138.2185  141.3415  162.7386 C.3     1  UNL1        0.0403
     33 C         137.6919  142.7263  162.5042 C.3     1  UNL1        0.0063
     34 C         138.0539  141.8544  161.3386 C.3     1  UNL1        0.0063
@<TRIPOS>BOND
     1     1     2    1
     2     2     3    2
     3     3     4    1
     4     4    14    1
     5    14    15   ar
     6    15    16   ar
     7    16    17   ar
     8    17    18   ar
     9    18    20    1
    10    20    21   ar
    11    21    22   ar
    12    22    23   ar
    13    23    24   ar
    14    24    25   ar
    15    18    19   ar
    16     4    26    1
    17    26    27   ar
    18    27    28   ar
    19    28    29   ar
    20    29    30   ar
    21    30    32    1
    22    32    33    1
    23    33    34    1
    24    30    31   ar
    25     4     5    1
    26     5     6   ar
    27     6     7   ar
    28     7     8   ar
    29     8     9   ar
    30     9    10    1
    31     9    11   ar
    32    11     2    1
    33    19    14   ar
    34    31    26   ar
    35    11     5   ar
    36    25    20   ar
    37    34    32    1
    38     1    12    1
    39     1    13    1
@<TRIPOS>MOLECULE
*****
 34 39 0 0 0
SMALL
GASTEIGER

@<TRIPOS>ATOM
      1 N         140.7038  141.5512  169.6524 N.pl3   1  UNL1       -0.2464
      2 C         140.6255  140.8296  168.3397 C.2     1  UNL1        0.3157
      3 N         141.6274  140.9132  167.2265 N.2     1  UNL1       -0.0614
      4 C         141.1526  140.0329  166.1086 C.3     1  UNL1        0.2309
      5 C         139.8572  139.4054  166.5309 C.ar    1  UNL1        0.0390
      6 C         138.9323  138.4493  165.8379 C.ar    1  UNL1        0.0008
      7 C         137.6816  137.9855  166.5239 C.ar    1  UNL1        0.0021
      8 C         137.3558  138.4779  167.9028 C.ar    1  UNL1        0.0299
      9 C         138.2808  139.4340  168.5958 C.ar    1  UNL1        0.1470
     10 F         137.9550  139.9264  169.9747 F       1  UNL1       -0.2039
     11 C         139.5315  139.8978  167.9098 C.ar    1  UNL1        0.1094
     12 H         141.4658  142.1447  169.8432 H       1  UNL1        0.2884
     13 H         139.9932  141.4314  170.3232 H       1  UNL1        0.2884
     14 C         140.9393  139.2497  164.8473 C.ar    1  UNL1        0.0297
     15 C         141.3551  137.8100  164.7790 C.ar    1  UNL1        0.0004
     16 C         141.1418  137.0267  163.5177 C.ar    1  UNL1       -0.0002
     17 C         140.5127  137.6831  162.3246 C.ar    1  UNL1        0.0001
     18 C         140.0969  139.1227  162.3928 C.ar    1  UNL1        0.0028
     19 C         140.3102  139.9060  163.6542 C.ar    1  UNL1        0.0005
     20 C         139.4678  139.7791  161.1997 C.ar    1  UNL1        0.0384
     21 C         139.1989  138.9801  159.9590 C.ar    1  UNL1        0.1022
     22 N         138.5699  139.6364  158.7660 N.ar    1  UNL1       -0.2224
     23 C         138.2096  141.0918  158.8136 C.ar    1  UNL1        0.1989
     24 N         138.4785  141.8907  160.0543 N.ar    1  UNL1       -0.2224
     25 C         139.1076  141.2344  161.2474 C.ar    1  UNL1        0.1022
     26 C         142.4034  140.4967  165.4227 C.ar    1  UNL1        0.0324
     27 C         143.5451  139.5451  165.2210 C.ar    1  UNL1        0.0210
     28 C         144.7958  140.0089  164.5351 C.ar    1  UNL1        0.0983
     29 N         144.9048  141.4244  164.0508 N.ar    1  UNL1       -0.2482
     30 C         143.7631  142.3760  164.2524 C.ar    1  UNL1        0.0585
     31 C         142.5124  141.9122  164.9384 C.ar    1  UNL1        0.0151
     32 C         143.8720  143.7915  163.7682 C.3     1  UNL1        0.0403
     33 C         144.1566  144.7695  162.6669 C.3     1  UNL1        0.0063
     34 C         143.7762  145.2653  164.0305 C.3     1  UNL1        0.0063
@<TRIPOS>BOND
     1     1     2    1
     2     2     3    2
     3     3     4    1
     4     4    14    1
     5    14    15   ar
     6    15    16   ar
     7    16    17   ar
     8    17    18   ar
     9    18    20    1
    10    20    21   ar
    11    21    22   ar
    12    22    23   ar
    13    23    24   ar
    14    24    25   ar
    15    18    19   ar
    16     4    26    1
    17    26    27   ar
    18    27    28   ar
    19    28    29   ar
    20    29    30   ar
    21    30    32    1
    22    32    33    1
    23    33    34    1
    24    30    31   ar
    25     4     5    1
    26     5     6   ar
    27     6     7   ar
    28     7     8   ar
    29     8     9   ar
    30     9    10    1
    31     9    11   ar
    32    11     2    1
    33    19    14   ar
    34    31    26   ar
    35    11     5   ar
    36    25    20   ar
    37    34    32    1
    38     1    12    1
    39     1    13    1
@<TRIPOS>MOLECULE
*****
 34 39 0 0 0
SMALL
GASTEIGER

@<TRIPOS>ATOM
      1 N         141.1381  143.6774  161.0982 N.pl3   1  UNL1       -0.2464
      2 C         141.5158  142.8706  162.3051 C.2     1  UNL1        0.3157
      3 N         140.9242  141.5512  162.7039 N.2     1  UNL1       -0.0614
      4 C         141.5942  141.1067  163.9703 C.3     1  UNL1        0.2309
      5 C         142.5998  142.1515  164.3541 C.ar    1  UNL1        0.0390
      6 C         143.5533  142.2510  165.5077 C.ar    1  UNL1        0.0008
      7 C         144.4584  143.4406  165.6321 C.ar    1  UNL1        0.0021
      8 C         144.4099  144.5308  164.6029 C.ar    1  UNL1        0.0299
      9 C         143.4564  144.4313  163.4493 C.ar    1  UNL1        0.1470
     10 F         143.4080  145.5215  162.4201 F       1  UNL1       -0.2039
     11 C         142.5513  143.2416  163.3249 C.ar    1  UNL1        0.1094
     12 H         140.4426  143.3484  160.4841 H       1  UNL1        0.2884
     13 H         141.5858  144.5360  160.9203 H       1  UNL1        0.2884
     14 C         142.0749  140.4136  165.2106 C.ar    1  UNL1        0.0297
     15 C         142.9751  139.2187  165.1010 C.ar    1  UNL1        0.0004
     16 C         143.4559  138.5256  166.3413 C.ar    1  UNL1       -0.0002
     17 C         143.0363  139.0272  167.6913 C.ar    1  UNL1        0.0001
     18 C         142.1361  140.2220  167.8010 C.ar    1  UNL1        0.0028
     19 C         141.6554  140.9152  166.5606 C.ar    1  UNL1        0.0005
     20 C         141.7166  140.7237  169.1509 C.ar    1  UNL1        0.0384
     21 C         142.2338  142.0379  169.6565 C.ar    1  UNL1        0.1022
     22 N         141.8143  142.5397  171.0063 N.ar    1  UNL1       -0.2224
     23 C         140.8776  141.7273  171.8506 C.ar    1  UNL1        0.1989
     24 N         140.3604  140.4133  171.3450 N.ar    1  UNL1       -0.2224
     25 C         140.7799  139.9114  169.9951 C.ar    1  UNL1        0.1022
     26 C         140.6890  139.9170  163.8458 C.ar    1  UNL1        0.0324
     27 C         140.6347  139.1473  162.5596 C.ar    1  UNL1        0.0210
     28 C         139.7296  137.9577  162.4352 C.ar    1  UNL1        0.0983
     29 N         138.8788  137.5378  163.5970 N.ar    1  UNL1       -0.2482
     30 C         138.9331  138.3076  164.8832 C.ar    1  UNL1        0.0585
     31 C         139.8382  139.4972  165.0076 C.ar    1  UNL1        0.0151
     32 C         138.0823  137.8877  166.0450 C.3     1  UNL1        0.0403
     33 C         137.3625  136.8150  166.8075 C.3     1  UNL1        0.0063
     34 C         137.3283  138.2332  167.2950 C.3     1  UNL1        0.0063
@<TRIPOS>BOND
     1     1     2    1
     2     2     3    2
     3     3     4    1
     4     4    14    1
     5    14    15   ar
     6    15    16   ar
     7    16    17   ar
     8    17    18   ar
     9    18    20    1
    10    20    21   ar
    11    21    22   ar
    12    22    23   ar
    13    23    24   ar
    14    24    25   ar
    15    18    19   ar
    16     4    26    1
    17    26    27   ar
    18    27    28   ar
    19    28    29   ar
    20    29    30   ar
    21    30    32    1
    22    32    33    1
    23    33    34    1
    24    30    31   ar
    25     4     5    1
    26     5     6   ar
    27     6     7   ar
    28     7     8   ar
    29     8     9   ar
    30     9    10    1
    31     9    11   ar
    32    11     2    1
    33    19    14   ar
    34    31    26   ar
    35    11     5   ar
    36    25    20   ar
    37    34    32    1
    38     1    12    1
    39     1    13    1
@<TRIPOS>MOLECULE
*****
 34 39 0 0 0
SMALL
GASTEIGER

@<TRIPOS>ATOM
      1 N         143.4316  139.8872  170.9699 N.pl3   1  UNL1       -0.2464
      2 C         142.6162  139.8690  169.7110 C.2     1  UNL1        0.3157
      3 N         143.1551  139.8186  168.3121 N.2     1  UNL1       -0.0614
      4 C         141.9906  139.8166  167.3666 C.3     1  UNL1        0.2309
      5 C         140.7320  139.8658  168.1811 C.ar    1  UNL1        0.0390
      6 C         139.2839  139.8852  167.7906 C.ar    1  UNL1        0.0008
      7 C         138.2224  139.9371  168.8491 C.ar    1  UNL1        0.0021
      8 C         138.6090  139.9695  170.2981 C.ar    1  UNL1        0.0299
      9 C         140.0571  139.9501  170.6886 C.ar    1  UNL1        0.1470
     10 F         140.4437  139.9825  172.1375 F       1  UNL1       -0.2039
     11 C         141.1186  139.8982  169.6301 C.ar    1  UNL1        0.1094
     12 H         144.4146  139.8652  170.9200 H       1  UNL1        0.2884
     13 H         142.9838  139.9211  171.8460 H       1  UNL1        0.2884
     14 C         141.0481  139.8037  166.1998 C.ar    1  UNL1        0.0297
     15 C         140.5478  138.4990  165.6541 C.ar    1  UNL1        0.0004
     16 C         139.6053  138.4862  164.4873 C.ar    1  UNL1       -0.0002
     17 C         139.1630  139.7779  163.8661 C.ar    1  UNL1        0.0001
     18 C         139.6633  141.0825  164.4117 C.ar    1  UNL1        0.0028
     19 C         140.6059  141.0954  165.5786 C.ar    1  UNL1        0.0005
     20 C         139.2211  142.3743  163.7906 C.ar    1  UNL1        0.0384
     21 C         139.7641  143.6763  164.3007 C.ar    1  UNL1        0.1022
     22 N         139.3220  144.9680  163.6797 N.ar    1  UNL1       -0.2224
     23 C         138.3369  144.9579  162.5485 C.ar    1  UNL1        0.1989
     24 N         137.7940  143.6560  162.0384 N.ar    1  UNL1       -0.2224
     25 C         138.2361  142.3641  162.6594 C.ar    1  UNL1        0.1022
     26 C         143.0523  139.7647  166.3081 C.ar    1  UNL1        0.0324
     27 C         143.9260  138.5521  166.1809 C.ar    1  UNL1        0.0210
     28 C         144.9875  138.5003  165.1225 C.ar    1  UNL1        0.0983
     29 N         145.1754  139.6611  164.1912 N.ar    1  UNL1       -0.2482
     30 C         144.3016  140.8736  164.3183 C.ar    1  UNL1        0.0585
     31 C         143.2401  140.9255  165.3768 C.ar    1  UNL1        0.0151
     32 C         144.4895  142.0344  163.3870 C.3     1  UNL1        0.0403
     33 C         144.3702  143.5018  163.0995 C.3     1  UNL1        0.0063
     34 C         144.9340  142.5776  162.0613 C.3     1  UNL1        0.0063
@<TRIPOS>BOND
     1     1     2    1
     2     2     3    2
     3     3     4    1
     4     4    14    1
     5    14    15   ar
     6    15    16   ar
     7    16    17   ar
     8    17    18   ar
     9    18    20    1
    10    20    21   ar
    11    21    22   ar
    12    22    23   ar
    13    23    24   ar
    14    24    25   ar
    15    18    19   ar
    16     4    26    1
    17    26    27   ar
    18    27    28   ar
    19    28    29   ar
    20    29    30   ar
    21    30    32    1
    22    32    33    1
    23    33    34    1
    24    30    31   ar
    25     4     5    1
    26     5     6   ar
    27     6     7   ar
    28     7     8   ar
    29     8     9   ar
    30     9    10    1
    31     9    11   ar
    32    11     2    1
    33    19    14   ar
    34    31    26   ar
    35    11     5   ar
    36    25    20   ar
    37    34    32    1
    38     1    12    1
    39     1    13    1
@<TRIPOS>MOLECULE
*****
 34 39 0 0 0
SMALL
GASTEIGER

@<TRIPOS>ATOM
      1 N         140.8882  137.2420  164.7320 N.pl3   1  UNL1       -0.2464
      2 C         140.6914  138.6716  164.3225 C.2     1  UNL1        0.3157
      3 N         141.5178  139.8395  164.7729 N.2     1  UNL1       -0.0614
      4 C         140.9707  141.0739  164.1194 C.3     1  UNL1        0.2309
      5 C         139.8062  140.6688  163.2651 C.ar    1  UNL1        0.0390
      6 C         138.8807  141.4601  162.3892 C.ar    1  UNL1        0.0008
      7 C         137.7826  140.7666  161.6388 C.ar    1  UNL1        0.0021
      8 C         137.6099  139.2819  161.7643 C.ar    1  UNL1        0.0299
      9 C         138.5354  138.4906  162.6402 C.ar    1  UNL1        0.1470
     10 F         138.3627  137.0059  162.7657 F       1  UNL1       -0.2039
     11 C         139.6335  139.1841  163.3906 C.ar    1  UNL1        0.1094
     12 H         141.6147  137.0031  165.3519 H       1  UNL1        0.2884
     13 H         140.2909  136.5427  164.3808 H       1  UNL1        0.2884
     14 C         140.6532  142.4532  163.6228 C.ar    1  UNL1        0.0297
     15 C         139.9572  143.4321  164.5214 C.ar    1  UNL1        0.0004
     16 C         139.6397  144.8115  164.0248 C.ar    1  UNL1       -0.0002
     17 C         140.0182  145.2119  162.6297 C.ar    1  UNL1        0.0001
     18 C         140.7142  144.2331  161.7311 C.ar    1  UNL1        0.0028
     19 C         141.0317  142.8537  162.2277 C.ar    1  UNL1        0.0005
     20 C         141.0928  144.6335  160.3360 C.ar    1  UNL1        0.0384
     21 C         140.2167  145.5732  159.5617 C.ar    1  UNL1        0.1022
     22 N         140.5951  145.9736  158.1666 N.ar    1  UNL1       -0.2224
     23 C         141.8496  145.4343  157.5458 C.ar    1  UNL1        0.1989
     24 N         142.7257  144.4947  158.3201 N.ar    1  UNL1       -0.2224
     25 C         142.3472  144.0942  159.7152 C.ar    1  UNL1        0.1022
     26 C         142.0689  141.7673  164.8699 C.ar    1  UNL1        0.0324
     27 C         143.1742  142.4504  164.1204 C.ar    1  UNL1        0.0210
     28 C         144.2723  143.1438  164.8709 C.ar    1  UNL1        0.0983
     29 N         144.2652  143.1541  166.3709 N.ar    1  UNL1       -0.2482
     30 C         143.1600  142.4710  167.1203 C.ar    1  UNL1        0.0585
     31 C         142.0618  141.7776  166.3698 C.ar    1  UNL1        0.0151
     32 C         143.1528  142.4812  168.6203 C.3     1  UNL1        0.0403
     33 C         142.4451  142.7552  169.9142 C.3     1  UNL1        0.0063
     34 C         143.8483  142.2250  169.9245 C.3     1  UNL1        0.0063
@<TRIPOS>BOND
     1     1     2    1
     2     2     3    2
     3     3     4    1
     4     4    14    1
     5    14    15   ar
     6    15    16   ar
     7    16    17   ar
     8    17    18   ar
     9    18    20    1
    10    20    21   ar
    11    21    22   ar
    12    22    23   ar
    13    23    24   ar
    14    24    25   ar
    15    18    19   ar
    16     4    26    1
    17    26    27   ar
    18    27    28   ar
    19    28    29   ar
    20    29    30   ar
    21    30    32    1
    22    32    33    1
    23    33    34    1
    24    30    31   ar
    25     4     5    1
    26     5     6   ar
    27     6     7   ar
    28     7     8   ar
    29     8     9   ar
    30     9    10    1
    31     9    11   ar
    32    11     2    1
    33    19    14   ar
    34    31    26   ar
    35    11     5   ar
    36    25    20   ar
    37    34    32    1
    38     1    12    1
    39     1    13    1
@<TRIPOS>MOLECULE
*****
 34 39 0 0 0
SMALL
GASTEIGER

@<TRIPOS>ATOM
      1 N         143.6892  138.2796  167.5852 N.pl3   1  UNL1       -0.2464
      2 C         142.6425  139.1278  166.9257 C.2     1  UNL1        0.3157
      3 N         141.9708  138.8396  165.6158 N.2     1  UNL1       -0.0614
      4 C         140.9969  139.9468  165.3408 C.3     1  UNL1        0.2309
      5 C         141.0667  140.9193  166.4808 C.ar    1  UNL1        0.0390
      6 C         140.3355  142.2003  166.7534 C.ar    1  UNL1        0.0008
      7 C         140.6214  142.9751  168.0055 C.ar    1  UNL1        0.0021
      8 C         141.6384  142.4690  168.9850 C.ar    1  UNL1        0.0299
      9 C         142.3696  141.1879  168.7124 C.ar    1  UNL1        0.1470
     10 F         143.3866  140.6818  169.6919 F       1  UNL1       -0.2039
     11 C         142.0837  140.4131  167.4603 C.ar    1  UNL1        0.1094
     12 H         143.9930  137.4485  167.1538 H       1  UNL1        0.2884
     13 H         144.0723  138.5540  168.4496 H       1  UNL1        0.2884
     14 C         139.9633  140.8920  164.8041 C.ar    1  UNL1        0.0297
     15 C         138.5545  140.8323  165.3159 C.ar    1  UNL1        0.0004
     16 C         137.5208  141.7775  164.7791 C.ar    1  UNL1       -0.0002
     17 C         137.8959  142.7824  163.7305 C.ar    1  UNL1        0.0001
     18 C         139.3046  142.8421  163.2187 C.ar    1  UNL1        0.0028
     19 C         140.3383  141.8969  163.7555 C.ar    1  UNL1        0.0005
     20 C         139.6797  143.8470  162.1701 C.ar    1  UNL1        0.0384
     21 C         139.1784  145.2573  162.2695 C.ar    1  UNL1        0.1022
     22 N         139.5534  146.2622  161.2211 N.ar    1  UNL1       -0.2224
     23 C         140.4298  145.8568  160.0731 C.ar    1  UNL1        0.1989
     24 N         140.9311  144.4465  159.9737 N.ar    1  UNL1       -0.2224
     25 C         140.5560  143.4416  161.0223 C.ar    1  UNL1        0.1022
     26 C         140.7111  139.1718  164.0887 C.ar    1  UNL1        0.0324
     27 C         139.4527  138.3630  163.9780 C.ar    1  UNL1        0.0210
     28 C         139.1669  137.5882  162.7259 C.ar    1  UNL1        0.0983
     29 N         140.1395  137.6221  161.5844 N.ar    1  UNL1       -0.2482
     30 C         141.3979  138.4309  161.6951 C.ar    1  UNL1        0.0585
     31 C         141.6837  139.2058  162.9472 C.ar    1  UNL1        0.0151
     32 C         142.3704  138.4649  160.5536 C.3     1  UNL1        0.0403
     33 C         142.8050  137.9797  159.2023 C.3     1  UNL1        0.0063
     34 C         143.6205  139.0088  159.9277 C.3     1  UNL1        0.0063
@<TRIPOS>BOND
     1     1     2    1
     2     2     3    2
     3     3     4    1
     4     4    14    1
     5    14    15   ar
     6    15    16   ar
     7    16    17   ar
     8    17    18   ar
     9    18    20    1
    10    20    21   ar
    11    21    22   ar
    12    22    23   ar
    13    23    24   ar
    14    24    25   ar
    15    18    19   ar
    16     4    26    1
    17    26    27   ar
    18    27    28   ar
    19    28    29   ar
    20    29    30   ar
    21    30    32    1
    22    32    33    1
    23    33    34    1
    24    30    31   ar
    25     4     5    1
    26     5     6   ar
    27     6     7   ar
    28     7     8   ar
    29     8     9   ar
    30     9    10    1
    31     9    11   ar
    32    11     2    1
    33    19    14   ar
    34    31    26   ar
    35    11     5   ar
    36    25    20   ar
    37    34    32    1
    38     1    12    1
    39     1    13    1
