@<TRIPOS>MOLECULE
*****
 24 26 0 0 0
SMALL
GASTEIGER

@<TRIPOS>ATOM
      1 C         141.1642  140.4351  168.7461 C.3     1  UNL1        0.0489
      2 C         140.1563  140.6001  169.8446 C.3     1  UNL1        0.0236
      3 C         140.6105  140.6962  171.2710 C.3     1  UNL1        0.0690
      4 N         142.0726  140.6272  171.5988 N.3     1  UNL1       -0.2974
      5 C         143.0805  140.4622  170.5003 C.3     1  UNL1        0.0690
      6 C         142.6263  140.3661  169.0739 C.3     1  UNL1        0.0236
      7 H         142.1954  139.8372  172.2322 H       1  UNL1        0.1232
      8 C         141.7329  140.2747  167.3674 C.ar    1  UNL1       -0.0204
      9 C         141.3923  141.2670  166.2954 C.ar    1  UNL1       -0.0042
     10 C         141.9610  141.1066  164.9167 C.ar    1  UNL1       -0.0003
     11 C         142.8704  139.9537  164.6100 C.ar    1  UNL1       -0.0000
     12 C         143.2110  138.9614  165.6820 C.ar    1  UNL1       -0.0003
     13 C         142.6423  139.1218  167.0607 C.ar    1  UNL1       -0.0042
     14 C         139.8996  140.4484  167.9395 C.3     1  UNL1        0.1466
     15 O         138.8323  139.4275  168.2013 O.3     1  UNL1       -0.3487
     16 C         138.0268  138.8756  167.0627 C.3     1  UNL1        0.1687
     17 CL        138.1518  141.3914  162.5179 Cl      1  UNL1       -0.0613
     18 C         138.5990  140.2516  163.3845 C.ar    1  UNL1        0.1390
     19 C         138.0893  140.1335  164.7902 C.ar    1  UNL1        0.0290
     20 C         138.5365  138.9937  165.6568 C.ar    1  UNL1        0.0120
     21 C         139.4934  137.9721  165.1177 C.ar    1  UNL1        0.0290
     22 C         140.0030  138.0903  163.7119 C.ar    1  UNL1        0.1390
     23 CL        140.9600  137.0687  163.1727 Cl      1  UNL1       -0.0613
     24 N         139.5558  139.2300  162.8453 N.ar    1  UNL1       -0.2226
@<TRIPOS>BOND
     1    17    18    1
     2    18    19   ar
     3    19    20   ar
     4    20    16    1
     5    16    15    1
     6    15    14    1
     7    14     1    1
     8     1     8    1
     9     8     9   ar
    10     9    10   ar
    11    10    11   ar
    12    11    12   ar
    13    12    13   ar
    14     1     2    1
    15     2     3    1
    16     3     4    1
    17     4     5    1
    18     5     6    1
    19    20    21   ar
    20    21    22   ar
    21    22    23    1
    22    22    24   ar
    23    24    18   ar
    24     6     1    1
    25    13     8   ar
    26     4     7    1
@<TRIPOS>MOLECULE
*****
 24 26 0 0 0
SMALL
GASTEIGER

@<TRIPOS>ATOM
      1 C         141.1643  140.4310  168.7413 C.3     1  UNL1        0.0489
      2 C         140.1521  140.5985  169.8355 C.3     1  UNL1        0.0236
      3 C         140.6005  140.6953  171.2637 C.3     1  UNL1        0.0690
      4 N         142.0611  140.6245  171.5976 N.3     1  UNL1       -0.2974
      5 C         143.0734  140.4570  170.5034 C.3     1  UNL1        0.0690
      6 C         142.6249  140.3602  169.0752 C.3     1  UNL1        0.0236
      7 H         142.1801  139.8349  172.2323 H       1  UNL1        0.1232
      8 C         141.7385  140.2685  167.3651 C.ar    1  UNL1       -0.0204
      9 C         142.6510  139.1166  167.0644 C.ar    1  UNL1       -0.0042
     10 C         143.2252  138.9540  165.6883 C.ar    1  UNL1       -0.0003
     11 C         142.8869  139.9434  164.6128 C.ar    1  UNL1       -0.0000
     12 C         141.9744  141.0953  164.9135 C.ar    1  UNL1       -0.0003
     13 C         141.4002  141.2579  166.2896 C.ar    1  UNL1       -0.0042
     14 C         139.9031  140.4453  167.9295 C.3     1  UNL1        0.1466
     15 O         138.8276  139.4345  168.1967 O.3     1  UNL1       -0.3487
     16 C         138.0307  138.8686  167.0588 C.3     1  UNL1        0.1687
     17 CL        140.9617  137.0696  163.1636 Cl      1  UNL1       -0.0613
     18 C         140.0055  138.0904  163.7055 C.ar    1  UNL1        0.1390
     19 C         139.4962  137.9691  165.1112 C.ar    1  UNL1        0.0290
     20 C         138.5400  138.9899  165.6531 C.ar    1  UNL1        0.0120
     21 C         138.0932  140.1320  164.7894 C.ar    1  UNL1        0.0290
     22 C         138.6025  140.2532  163.3838 C.ar    1  UNL1        0.1390
     23 CL        138.1556  141.3953  162.5200 Cl      1  UNL1       -0.0613
     24 N         139.5587  139.2324  162.8418 N.ar    1  UNL1       -0.2226
@<TRIPOS>BOND
     1    17    18    1
     2    18    19   ar
     3    19    20   ar
     4    20    16    1
     5    16    15    1
     6    15    14    1
     7    14     1    1
     8     1     8    1
     9     8     9   ar
    10     9    10   ar
    11    10    11   ar
    12    11    12   ar
    13    12    13   ar
    14     1     2    1
    15     2     3    1
    16     3     4    1
    17     4     5    1
    18     5     6    1
    19    20    21   ar
    20    21    22   ar
    21    22    23    1
    22    22    24   ar
    23    24    18   ar
    24     6     1    1
    25    13     8   ar
    26     4     7    1
@<TRIPOS>MOLECULE
*****
 24 26 0 0 0
SMALL
GASTEIGER

@<TRIPOS>ATOM
      1 C         140.8610  141.1234  168.6985 C.3     1  UNL1        0.0489
      2 C         140.5190  140.2989  169.9040 C.3     1  UNL1        0.0236
      3 C         140.8005  140.8282  171.2790 C.3     1  UNL1        0.0690
      4 N         141.4238  142.1819  171.4485 N.3     1  UNL1       -0.2974
      5 C         141.7657  143.0064  170.2430 C.3     1  UNL1        0.0690
      6 C         141.4843  142.4771  168.8680 C.3     1  UNL1        0.0236
      7 H         142.2916  142.0438  171.9665 H       1  UNL1        0.1232
      8 C         141.0036  141.5263  167.2607 C.ar    1  UNL1       -0.0204
      9 C         140.3289  142.7686  166.7594 C.ar    1  UNL1       -0.0042
     10 C         140.4715  143.1715  165.3216 C.ar    1  UNL1       -0.0003
     11 C         141.2889  142.3320  164.3850 C.ar    1  UNL1       -0.0000
     12 C         141.9636  141.0896  164.8863 C.ar    1  UNL1       -0.0003
     13 C         141.8210  140.6867  166.3241 C.ar    1  UNL1       -0.0042
     14 C         140.2871  139.9095  168.0297 C.3     1  UNL1        0.1466
     15 O         138.8521  139.5363  168.2561 O.3     1  UNL1       -0.3487
     16 C         138.0592  138.9010  167.1526 C.3     1  UNL1        0.1687
     17 CL        137.9190  141.6958  162.7743 Cl      1  UNL1       -0.0613
     18 C         138.4007  140.4958  163.5346 C.ar    1  UNL1        0.1390
     19 C         137.9891  140.2984  164.9634 C.ar    1  UNL1        0.0290
     20 C         138.4709  139.0984  165.7237 C.ar    1  UNL1        0.0120
     21 C         139.3642  138.0959  165.0552 C.ar    1  UNL1        0.0290
     22 C         139.7758  138.2934  163.6264 C.ar    1  UNL1        0.1390
     23 CL        140.6691  137.2909  162.9578 Cl      1  UNL1       -0.0613
     24 N         139.2940  139.4933  162.8661 N.ar    1  UNL1       -0.2226
@<TRIPOS>BOND
     1    17    18    1
     2    18    19   ar
     3    19    20   ar
     4    20    16    1
     5    16    15    1
     6    15    14    1
     7    14     1    1
     8     1     8    1
     9     8     9   ar
    10     9    10   ar
    11    10    11   ar
    12    11    12   ar
    13    12    13   ar
    14     1     2    1
    15     2     3    1
    16     3     4    1
    17     4     5    1
    18     5     6    1
    19    20    21   ar
    20    21    22   ar
    21    22    23    1
    22    22    24   ar
    23    24    18   ar
    24     6     1    1
    25    13     8   ar
    26     4     7    1
@<TRIPOS>MOLECULE
*****
 24 26 0 0 0
SMALL
GASTEIGER

@<TRIPOS>ATOM
      1 C         141.0117  140.3044  168.5682 C.3     1  UNL1        0.0489
      2 C         142.2170  140.2710  169.4605 C.3     1  UNL1        0.0236
      3 C         142.0585  140.4449  170.9419 C.3     1  UNL1        0.0690
      4 N         140.6948  140.6523  171.5311 N.3     1  UNL1       -0.2974
      5 C         139.4895  140.6858  170.6389 C.3     1  UNL1        0.0690
      6 C         139.6480  140.5118  169.1574 C.3     1  UNL1        0.0236
      7 H         140.7201  141.5442  172.0254 H       1  UNL1        0.1232
      8 C         140.1797  140.2605  167.3209 C.ar    1  UNL1       -0.0204
      9 C         138.9942  139.3449  167.2420 C.ar    1  UNL1       -0.0042
     10 C         138.1622  139.3010  165.9946 C.ar    1  UNL1       -0.0003
     11 C         138.5157  140.1728  164.8263 C.ar    1  UNL1       -0.0000
     12 C         139.7011  141.0885  164.9052 C.ar    1  UNL1       -0.0003
     13 C         140.5332  141.1323  166.1526 C.ar    1  UNL1       -0.0042
     14 C         142.0865  140.0818  167.5459 C.3     1  UNL1        0.1466
     15 O         143.1509  139.0531  167.7885 O.3     1  UNL1       -0.3487
     16 C         143.5898  138.1506  166.6737 C.3     1  UNL1        0.1687
     17 CL        139.9989  137.4782  162.9786 Cl      1  UNL1       -0.0613
     18 C         141.3073  138.0577  163.4284 C.ar    1  UNL1        0.1390
     19 C         141.7944  137.8144  164.8261 C.ar    1  UNL1        0.0290
     20 C         143.1028  138.3939  165.2759 C.ar    1  UNL1        0.0120
     21 C         143.9241  139.2166  164.3280 C.ar    1  UNL1        0.0290
     22 C         143.4371  139.4598  162.9303 C.ar    1  UNL1        0.1390
     23 CL        144.2585  140.2825  161.9823 Cl      1  UNL1       -0.0613
     24 N         142.1287  138.8803  162.4805 N.ar    1  UNL1       -0.2226
@<TRIPOS>BOND
     1    17    18    1
     2    18    19   ar
     3    19    20   ar
     4    20    16    1
     5    16    15    1
     6    15    14    1
     7    14     1    1
     8     1     8    1
     9     8     9   ar
    10     9    10   ar
    11    10    11   ar
    12    11    12   ar
    13    12    13   ar
    14     1     2    1
    15     2     3    1
    16     3     4    1
    17     4     5    1
    18     5     6    1
    19    20    21   ar
    20    21    22   ar
    21    22    23    1
    22    22    24   ar
    23    24    18   ar
    24     6     1    1
    25    13     8   ar
    26     4     7    1
@<TRIPOS>MOLECULE
*****
 24 26 0 0 0
SMALL
GASTEIGER

@<TRIPOS>ATOM
      1 C         140.9906  140.3122  168.5712 C.3     1  UNL1        0.0489
      2 C         142.2017  140.2991  169.4561 C.3     1  UNL1        0.0236
      3 C         142.0495  140.4720  170.9383 C.3     1  UNL1        0.0690
      4 N         140.6862  140.6580  171.5356 N.3     1  UNL1       -0.2974
      5 C         139.4751  140.6711  170.6507 C.3     1  UNL1        0.0690
      6 C         139.6273  140.4982  169.1685 C.3     1  UNL1        0.0236
      7 H         140.7001  141.5507  172.0288 H       1  UNL1        0.1232
      8 C         140.1519  140.2536  167.3290 C.ar    1  UNL1       -0.0204
      9 C         140.4901  141.1223  166.1540 C.ar    1  UNL1       -0.0042
     10 C         139.6514  141.0637  164.9118 C.ar    1  UNL1       -0.0003
     11 C         138.4743  140.1363  164.8447 C.ar    1  UNL1       -0.0000
     12 C         138.1360  139.2675  166.0197 C.ar    1  UNL1       -0.0003
     13 C         138.9748  139.3261  167.2619 C.ar    1  UNL1       -0.0042
     14 C         142.0626  140.1058  167.5425 C.3     1  UNL1        0.1466
     15 O         143.1503  139.1015  167.7838 O.3     1  UNL1       -0.3487
     16 C         143.5672  138.1689  166.6855 C.3     1  UNL1        0.1687
     17 CL        144.2684  140.2505  161.9764 Cl      1  UNL1       -0.0613
     18 C         143.4387  139.4410  162.9284 C.ar    1  UNL1        0.1390
     19 C         143.9177  139.2097  164.3309 C.ar    1  UNL1        0.0290
     20 C         143.0880  138.4002  165.2829 C.ar    1  UNL1        0.0120
     21 C         141.7793  137.8221  164.8325 C.ar    1  UNL1        0.0290
     22 C         141.3002  138.0535  163.4301 C.ar    1  UNL1        0.1390
     23 CL        139.9914  137.4754  162.9796 Cl      1  UNL1       -0.0613
     24 N         142.1299  138.8629  162.4780 N.ar    1  UNL1       -0.2226
@<TRIPOS>BOND
     1    17    18    1
     2    18    19   ar
     3    19    20   ar
     4    20    16    1
     5    16    15    1
     6    15    14    1
     7    14     1    1
     8     1     8    1
     9     8     9   ar
    10     9    10   ar
    11    10    11   ar
    12    11    12   ar
    13    12    13   ar
    14     1     2    1
    15     2     3    1
    16     3     4    1
    17     4     5    1
    18     5     6    1
    19    20    21   ar
    20    21    22   ar
    21    22    23    1
    22    22    24   ar
    23    24    18   ar
    24     6     1    1
    25    13     8   ar
    26     4     7    1
@<TRIPOS>MOLECULE
*****
 24 26 0 0 0
SMALL
GASTEIGER

@<TRIPOS>ATOM
      1 C         142.1414  141.1080  168.6288 C.3     1  UNL1        0.0489
      2 C         142.0766  140.1329  169.7668 C.3     1  UNL1        0.0236
      3 C         142.0797  140.6305  171.1819 C.3     1  UNL1        0.0690
      4 N         142.1476  142.1031  171.4589 N.3     1  UNL1       -0.2974
      5 C         142.2125  143.0781  170.3210 C.3     1  UNL1        0.0690
      6 C         142.2093  142.5806  168.9059 C.3     1  UNL1        0.0236
      7 H         142.9806  142.2577  172.0270 H       1  UNL1        0.1232
      8 C         142.1883  141.6352  167.2253 C.ar    1  UNL1       -0.0204
      9 C         141.0366  141.3945  166.2949 C.ar    1  UNL1       -0.0042
     10 C         141.0835  141.9217  164.8914 C.ar    1  UNL1       -0.0003
     11 C         142.2821  142.6896  164.4183 C.ar    1  UNL1       -0.0000
     12 C         143.4337  142.9303  165.3487 C.ar    1  UNL1       -0.0003
     13 C         143.3869  142.4031  166.7522 C.ar    1  UNL1       -0.0042
     14 C         142.0897  139.8185  167.8643 C.3     1  UNL1        0.1466
     15 O         143.1662  138.7911  168.0529 O.3     1  UNL1       -0.3487
     16 C         143.7033  138.0416  166.8697 C.3     1  UNL1        0.1687
     17 CL        140.3569  137.9944  162.8949 Cl      1  UNL1       -0.0613
     18 C         141.6572  138.4431  163.4930 C.ar    1  UNL1        0.1390
     19 C         142.0301  138.0181  164.8823 C.ar    1  UNL1        0.0290
     20 C         143.3305  138.4668  165.4803 C.ar    1  UNL1        0.0120
     21 C         144.2580  139.3405  164.6891 C.ar    1  UNL1        0.0290
     22 C         143.8852  139.7656  163.2998 C.ar    1  UNL1        0.1390
     23 CL        144.8127  140.6395  162.5084 Cl      1  UNL1       -0.0613
     24 N         142.5848  139.3169  162.7017 N.ar    1  UNL1       -0.2226
@<TRIPOS>BOND
     1    17    18    1
     2    18    19   ar
     3    19    20   ar
     4    20    16    1
     5    16    15    1
     6    15    14    1
     7    14     1    1
     8     1     8    1
     9     8     9   ar
    10     9    10   ar
    11    10    11   ar
    12    11    12   ar
    13    12    13   ar
    14     1     2    1
    15     2     3    1
    16     3     4    1
    17     4     5    1
    18     5     6    1
    19    20    21   ar
    20    21    22   ar
    21    22    23    1
    22    22    24   ar
    23    24    18   ar
    24     6     1    1
    25    13     8   ar
    26     4     7    1
@<TRIPOS>MOLECULE
*****
 24 26 0 0 0
SMALL
GASTEIGER

@<TRIPOS>ATOM
      1 C         141.8101  141.6545  167.8971 C.3     1  UNL1        0.0489
      2 C         140.9329  142.7561  168.4136 C.3     1  UNL1        0.0236
      3 C         140.6839  142.8883  169.8869 C.3     1  UNL1        0.0690
      4 N         141.3122  141.9188  170.8436 N.3     1  UNL1       -0.2974
      5 C         142.1894  140.8171  170.3271 C.3     1  UNL1        0.0690
      6 C         142.4383  140.6850  168.8538 C.3     1  UNL1        0.0236
      7 H         140.5499  141.4733  171.3544 H       1  UNL1        0.1232
      8 C         142.5595  140.7846  166.9318 C.ar    1  UNL1       -0.0204
      9 C         142.6469  139.3058  167.1669 C.ar    1  UNL1       -0.0042
     10 C         143.3962  138.4359  166.2016 C.ar    1  UNL1       -0.0003
     11 C         144.0583  139.0450  165.0012 C.ar    1  UNL1       -0.0000
     12 C         143.9709  140.5238  164.7662 C.ar    1  UNL1       -0.0003
     13 C         143.2215  141.3937  165.7315 C.ar    1  UNL1       -0.0042
     14 C         141.4421  142.3219  166.6051 C.3     1  UNL1        0.1466
     15 O         140.0036  142.6113  166.2936 O.3     1  UNL1       -0.3487
     16 C         139.3104  141.8665  165.1914 C.3     1  UNL1        0.1687
     17 CL        141.0749  137.2963  163.4593 Cl      1  UNL1       -0.0613
     18 C         140.1522  138.0821  164.3432 C.ar    1  UNL1        0.1390
     19 C         140.1926  139.5814  164.3254 C.ar    1  UNL1        0.0290
     20 C         139.2700  140.3671  165.2093 C.ar    1  UNL1        0.0120
     21 C         138.3070  139.6535  166.1111 C.ar    1  UNL1        0.0290
     22 C         138.2666  138.1542  166.1290 C.ar    1  UNL1        0.1390
     23 CL        137.3035  137.4405  167.0308 Cl      1  UNL1       -0.0613
     24 N         139.1892  137.3685  165.2450 N.ar    1  UNL1       -0.2226
@<TRIPOS>BOND
     1    17    18    1
     2    18    19   ar
     3    19    20   ar
     4    20    16    1
     5    16    15    1
     6    15    14    1
     7    14     1    1
     8     1     8    1
     9     8     9   ar
    10     9    10   ar
    11    10    11   ar
    12    11    12   ar
    13    12    13   ar
    14     1     2    1
    15     2     3    1
    16     3     4    1
    17     4     5    1
    18     5     6    1
    19    20    21   ar
    20    21    22   ar
    21    22    23    1
    22    22    24   ar
    23    24    18   ar
    24     6     1    1
    25    13     8   ar
    26     4     7    1
@<TRIPOS>MOLECULE
*****
 24 26 0 0 0
SMALL
GASTEIGER

@<TRIPOS>ATOM
      1 C         142.1829  141.0736  168.6375 C.3     1  UNL1        0.0489
      2 C         142.1598  140.1061  169.7834 C.3     1  UNL1        0.0236
      3 C         142.1813  140.6143  171.1946 C.3     1  UNL1        0.0690
      4 N         142.2259  142.0899  171.4597 N.3     1  UNL1       -0.2974
      5 C         142.2490  143.0575  170.3138 C.3     1  UNL1        0.0690
      6 C         142.2275  142.5493  168.9026 C.3     1  UNL1        0.0236
      7 H         143.0668  142.2650  172.0099 H       1  UNL1        0.1232
      8 C         142.1916  141.5910  167.2296 C.ar    1  UNL1       -0.0204
      9 C         141.0376  141.3001  166.3165 C.ar    1  UNL1       -0.0042
     10 C         141.0463  141.8176  164.9086 C.ar    1  UNL1       -0.0003
     11 C         142.2090  142.6259  164.4138 C.ar    1  UNL1       -0.0000
     12 C         143.3629  142.9168  165.3268 C.ar    1  UNL1       -0.0003
     13 C         143.3542  142.3994  166.7347 C.ar    1  UNL1       -0.0042
     14 C         142.1413  139.7776  167.8834 C.3     1  UNL1        0.1466
     15 O         143.2723  138.8004  168.0086 O.3     1  UNL1       -0.3487
     16 C         143.6860  137.9764  166.8255 C.3     1  UNL1        0.1687
     17 CL        144.8395  140.6769  162.5387 Cl      1  UNL1       -0.0613
     18 C         143.9093  139.7754  163.2951 C.ar    1  UNL1        0.1390
     19 C         144.2627  139.3266  164.6820 C.ar    1  UNL1        0.0290
     20 C         143.3326  138.4252  165.4385 C.ar    1  UNL1        0.0120
     21 C         142.0490  137.9725  164.8080 C.ar    1  UNL1        0.0290
     22 C         141.6956  138.4213  163.4210 C.ar    1  UNL1        0.1390
     23 CL        140.4120  137.9687  162.7904 Cl      1  UNL1       -0.0613
     24 N         142.6258  139.3228  162.6646 N.ar    1  UNL1       -0.2226
@<TRIPOS>BOND
     1    17    18    1
     2    18    19   ar
     3    19    20   ar
     4    20    16    1
     5    16    15    1
     6    15    14    1
     7    14     1    1
     8     1     8    1
     9     8     9   ar
    10     9    10   ar
    11    10    11   ar
    12    11    12   ar
    13    12    13   ar
    14     1     2    1
    15     2     3    1
    16     3     4    1
    17     4     5    1
    18     5     6    1
    19    20    21   ar
    20    21    22   ar
    21    22    23    1
    22    22    24   ar
    23    24    18   ar
    24     6     1    1
    25    13     8   ar
    26     4     7    1
@<TRIPOS>MOLECULE
*****
 24 26 0 0 0
SMALL
GASTEIGER

@<TRIPOS>ATOM
      1 C         140.0238  143.5320  164.3095 C.3     1  UNL1        0.0489
      2 C         140.6174  144.5396  163.3701 C.3     1  UNL1        0.0236
      3 C         139.7397  145.2576  162.3882 C.3     1  UNL1        0.0690
      4 N         138.2686  144.9682  162.3457 N.3     1  UNL1       -0.2974
      5 C         137.6750  143.9606  163.2851 C.3     1  UNL1        0.0690
      6 C         138.5527  143.2425  164.2671 C.3     1  UNL1        0.0236
      7 H         138.0585  144.6486  161.4001 H       1  UNL1        0.1232
      8 C         139.9299  142.5006  165.3946 C.ar    1  UNL1       -0.0204
      9 C         139.2713  141.1812  165.1202 C.ar    1  UNL1       -0.0042
     10 C         139.1774  140.1498  166.2053 C.ar    1  UNL1       -0.0003
     11 C         139.7421  140.4379  167.5648 C.ar    1  UNL1       -0.0000
     12 C         140.4007  141.7573  167.8391 C.ar    1  UNL1       -0.0003
     13 C         140.4946  142.7887  166.7541 C.ar    1  UNL1       -0.0042
     14 C         141.4624  143.4633  164.7288 C.3     1  UNL1        0.1466
     15 O         142.5412  143.3526  163.6926 O.3     1  UNL1       -0.3487
     16 C         143.4883  142.1897  163.7172 C.3     1  UNL1        0.1687
     17 CL        143.0428  138.8635  167.6843 Cl      1  UNL1       -0.0613
     18 C         142.8134  139.2024  166.2412 C.ar    1  UNL1        0.1390
     19 C         143.2655  140.5266  165.7007 C.ar    1  UNL1        0.0290
     20 C         143.0361  140.8655  164.2576 C.ar    1  UNL1        0.0120
     21 C         142.3546  139.8802  163.3550 C.ar    1  UNL1        0.0290
     22 C         141.9025  138.5561  163.8955 C.ar    1  UNL1        0.1390
     23 CL        141.2209  137.5707  162.9929 Cl      1  UNL1       -0.0613
     24 N         142.1319  138.2172  165.3386 N.ar    1  UNL1       -0.2226
@<TRIPOS>BOND
     1    17    18    1
     2    18    19   ar
     3    19    20   ar
     4    20    16    1
     5    16    15    1
     6    15    14    1
     7    14     1    1
     8     1     8    1
     9     8     9   ar
    10     9    10   ar
    11    10    11   ar
    12    11    12   ar
    13    12    13   ar
    14     1     2    1
    15     2     3    1
    16     3     4    1
    17     4     5    1
    18     5     6    1
    19    20    21   ar
    20    21    22   ar
    21    22    23    1
    22    22    24   ar
    23    24    18   ar
    24     6     1    1
    25    13     8   ar
    26     4     7    1
