@<TRIPOS>MOLECULE
*****
 25 28 0 0 0
SMALL
GASTEIGER

@<TRIPOS>ATOM
      1 C         142.5261  139.3102  164.5722 C.ar    1  UNL1        0.0790
      2 C         143.5734  139.0629  163.5272 C.ar    1  UNL1        0.0365
      3 C         142.9655  138.2082  162.4548 C.ar    1  UNL1        0.0962
      4 N         141.5425  137.9273  162.8371 N.ar    1  UNL1       -0.1723
      5 N         141.2710  138.6084  164.1456 N.ar    1  UNL1       -0.2531
      6 C         143.0566  141.7325  168.3273 C.ar    1  UNL1       -0.0225
      7 C         142.7423  140.2686  168.4172 C.ar    1  UNL1       -0.0042
      8 C         142.5655  139.4612  167.1655 C.ar    1  UNL1        0.0012
      9 C         142.7030  140.1177  165.8239 C.ar    1  UNL1        0.0173
     10 C         143.0172  141.5816  165.7339 C.ar    1  UNL1        0.0012
     11 C         143.1940  142.3890  166.9856 C.ar    1  UNL1       -0.0042
     12 C         144.6059  142.7568  170.1440 C.3     1  UNL1        0.0047
     13 C         143.2334  142.5400  169.5790 C.3     1  UNL1        0.0224
     14 C         142.0378  143.1306  170.2657 C.3     1  UNL1        0.0047
     15 C         139.9722  138.5907  164.8959 C.3     1  UNL1        0.1052
     16 C         139.1697  139.6084  165.6514 C.3     1  UNL1        0.0244
     17 C         138.1355  138.5659  165.9570 C.3     1  UNL1        0.0040
     18 C         138.9379  137.5483  165.2017 C.3     1  UNL1        0.0244
     19 C         143.6589  137.7200  161.2175 C.3     1  UNL1        0.1206
     20 N         143.4371  138.4182  159.9086 N.3     1  UNL1       -0.2633
     21 C         143.8642  139.8460  159.7383 C.3     1  UNL1        0.1049
     22 C         143.6424  140.5442  158.4294 C.3     1  UNL1        0.1595
     23 O         142.9934  139.8146  157.2908 O.3     1  UNL1       -0.3508
     24 C         142.5664  138.3869  157.4609 C.3     1  UNL1        0.1595
     25 C         142.7882  137.6886  158.7700 C.3     1  UNL1        0.1049
@<TRIPOS>BOND
     1    12    13    1
     2    13    14    1
     3    13     6    1
     4     6     7   ar
     5     7     8   ar
     6     8     9   ar
     7     9     1    1
     8     1     2   ar
     9     2     3   ar
    10     3    19    1
    11    19    20    1
    12    20    21    1
    13    21    22    1
    14    22    23    1
    15    23    24    1
    16    24    25    1
    17     3     4   ar
    18     4     5   ar
    19     5    15    1
    20    15    16    1
    21    16    17    1
    22    17    18    1
    23     9    10   ar
    24    10    11   ar
    25    11     6   ar
    26     5     1   ar
    27    18    15    1
    28    25    20    1
@<TRIPOS>MOLECULE
*****
 25 28 0 0 0
SMALL
GASTEIGER

@<TRIPOS>ATOM
      1 C         142.4896  139.2651  164.5654 C.ar    1  UNL1        0.0790
      2 C         143.5248  139.0360  163.5043 C.ar    1  UNL1        0.0365
      3 C         142.9182  138.1637  162.4455 C.ar    1  UNL1        0.0962
      4 N         141.5080  137.8537  162.8522 N.ar    1  UNL1       -0.1723
      5 N         141.2432  138.5344  164.1623 N.ar    1  UNL1       -0.2531
      6 C         143.0288  141.7144  168.3017 C.ar    1  UNL1       -0.0225
      7 C         143.1181  142.3701  166.9557 C.ar    1  UNL1       -0.0042
      8 C         142.9384  141.5537  165.7102 C.ar    1  UNL1        0.0012
      9 C         142.6693  140.0815  165.8108 C.ar    1  UNL1        0.0173
     10 C         142.5800  139.4257  167.1569 C.ar    1  UNL1        0.0012
     11 C         142.7597  140.2422  168.4023 C.ar    1  UNL1       -0.0042
     12 C         144.5777  142.7176  170.1304 C.3     1  UNL1        0.0047
     13 C         143.2085  142.5308  169.5472 C.3     1  UNL1        0.0224
     14 C         142.0189  143.1604  170.2094 C.3     1  UNL1        0.0047
     15 C         139.9576  138.4918  164.9340 C.3     1  UNL1        0.1052
     16 C         138.9262  137.4406  165.2195 C.3     1  UNL1        0.0244
     17 C         138.1394  138.4315  166.0252 C.3     1  UNL1        0.0040
     18 C         139.1708  139.4826  165.7397 C.3     1  UNL1        0.0244
     19 C         143.6016  137.6854  161.1988 C.3     1  UNL1        0.1206
     20 N         143.4154  138.4285  159.9092 N.3     1  UNL1       -0.2633
     21 C         142.7683  137.7491  158.7389 C.3     1  UNL1        0.1049
     22 C         142.5820  138.4922  157.4493 C.3     1  UNL1        0.1595
     23 O         143.0428  139.9147  157.3300 O.3     1  UNL1       -0.3508
     24 C         143.6899  140.5941  158.5003 C.3     1  UNL1        0.1595
     25 C         143.8762  139.8509  159.7900 C.3     1  UNL1        0.1049
@<TRIPOS>BOND
     1    12    13    1
     2    13    14    1
     3    13     6    1
     4     6     7   ar
     5     7     8   ar
     6     8     9   ar
     7     9     1    1
     8     1     2   ar
     9     2     3   ar
    10     3    19    1
    11    19    20    1
    12    20    21    1
    13    21    22    1
    14    22    23    1
    15    23    24    1
    16    24    25    1
    17     3     4   ar
    18     4     5   ar
    19     5    15    1
    20    15    16    1
    21    16    17    1
    22    17    18    1
    23     9    10   ar
    24    10    11   ar
    25    11     6   ar
    26     5     1   ar
    27    18    15    1
    28    25    20    1
@<TRIPOS>MOLECULE
*****
 25 28 0 0 0
SMALL
GASTEIGER

@<TRIPOS>ATOM
      1 C         139.5597  141.5736  165.0394 C.ar    1  UNL1        0.0790
      2 C         139.4282  142.7042  164.0625 C.ar    1  UNL1        0.0365
      3 C         138.3951  142.3199  163.0451 C.ar    1  UNL1        0.0962
      4 N         137.8881  140.9518  163.3932 N.ar    1  UNL1       -0.1723
      5 N         138.6079  140.4906  164.6258 N.ar    1  UNL1       -0.2531
      6 C         142.3243  141.4520  168.5880 C.ar    1  UNL1       -0.0225
      7 C         141.2514  142.4972  168.5086 C.ar    1  UNL1       -0.0042
      8 C         140.3298  142.5377  167.3257 C.ar    1  UNL1        0.0012
      9 C         140.4813  141.5331  166.2223 C.ar    1  UNL1        0.0173
     10 C         141.5542  140.4879  166.3017 C.ar    1  UNL1        0.0012
     11 C         142.4757  140.4474  167.4845 C.ar    1  UNL1       -0.0042
     12 C         143.1785  140.2646  170.7351 C.3     1  UNL1        0.0047
     13 C         143.2458  141.4115  169.7708 C.3     1  UNL1        0.0224
     14 C         144.2347  142.5180  169.9895 C.3     1  UNL1        0.0047
     15 C         138.4104  139.1769  165.3224 C.3     1  UNL1        0.1052
     16 C         137.8195  138.7498  166.6334 C.3     1  UNL1        0.0244
     17 C         138.1311  137.3191  166.3077 C.3     1  UNL1        0.0040
     18 C         138.7220  137.7462  164.9968 C.3     1  UNL1        0.0244
     19 C         137.9477  143.1569  161.8835 C.3     1  UNL1        0.1206
     20 N         138.9334  143.5642  160.8288 N.3     1  UNL1       -0.2633
     21 C         139.8650  144.7134  161.0767 C.3     1  UNL1        0.1049
     22 C         140.8507  145.1208  160.0220 C.3     1  UNL1        0.1595
     23 O         140.9048  144.3789  158.7194 O.3     1  UNL1       -0.3508
     24 C         139.9733  143.2297  158.4715 C.3     1  UNL1        0.1595
     25 C         138.9875  142.8223  159.5262 C.3     1  UNL1        0.1049
@<TRIPOS>BOND
     1    12    13    1
     2    13    14    1
     3    13     6    1
     4     6     7   ar
     5     7     8   ar
     6     8     9   ar
     7     9     1    1
     8     1     2   ar
     9     2     3   ar
    10     3    19    1
    11    19    20    1
    12    20    21    1
    13    21    22    1
    14    22    23    1
    15    23    24    1
    16    24    25    1
    17     3     4   ar
    18     4     5   ar
    19     5    15    1
    20    15    16    1
    21    16    17    1
    22    17    18    1
    23     9    10   ar
    24    10    11   ar
    25    11     6   ar
    26     5     1   ar
    27    18    15    1
    28    25    20    1
@<TRIPOS>MOLECULE
*****
 25 28 0 0 0
SMALL
GASTEIGER

@<TRIPOS>ATOM
      1 C         140.7685  139.4607  164.5153 C.ar    1  UNL1        0.0790
      2 C         141.4299  139.4745  163.1691 C.ar    1  UNL1        0.0365
      3 C         140.6542  138.5658  162.2621 C.ar    1  UNL1        0.0962
      4 N         139.5133  137.9904  163.0478 N.ar    1  UNL1       -0.1723
      5 N         139.5840  138.5434  164.4403 N.ar    1  UNL1       -0.2531
      6 C         142.1033  141.7660  168.1421 C.ar    1  UNL1       -0.0225
      7 C         142.6202  140.3783  167.9034 C.ar    1  UNL1       -0.0042
      8 C         142.1752  139.6098  166.6945 C.ar    1  UNL1        0.0012
      9 C         141.2134  140.2291  165.7242 C.ar    1  UNL1        0.0173
     10 C         140.6966  141.6169  165.9629 C.ar    1  UNL1        0.0012
     11 C         141.1415  142.3853  167.1719 C.ar    1  UNL1       -0.0042
     12 C         141.5678  143.3870  170.1005 C.3     1  UNL1        0.0047
     13 C         142.5483  142.5345  169.3510 C.3     1  UNL1        0.0224
     14 C         143.9737  142.4504  169.8104 C.3     1  UNL1        0.0047
     15 C         138.6364  138.2336  165.5611 C.3     1  UNL1        0.1052
     16 C         137.9221  139.0450  166.6011 C.3     1  UNL1        0.0244
     17 C         137.2964  137.7955  167.1462 C.3     1  UNL1        0.0040
     18 C         138.0107  136.9841  166.1063 C.3     1  UNL1        0.0244
     19 C         140.9648  138.2824  160.8223 C.3     1  UNL1        0.1206
     20 N         140.0768  138.8259  159.7424 N.3     1  UNL1       -0.2633
     21 C         140.2898  138.4112  158.3167 C.3     1  UNL1        0.1049
     22 C         139.4018  138.9547  157.2369 C.3     1  UNL1        0.1595
     23 O         138.3009  139.9130  157.5827 O.3     1  UNL1       -0.3508
     24 C         138.0879  140.3277  159.0083 C.3     1  UNL1        0.1595
     25 C         138.9759  139.7842  160.0883 C.3     1  UNL1        0.1049
@<TRIPOS>BOND
     1    12    13    1
     2    13    14    1
     3    13     6    1
     4     6     7   ar
     5     7     8   ar
     6     8     9   ar
     7     9     1    1
     8     1     2   ar
     9     2     3   ar
    10     3    19    1
    11    19    20    1
    12    20    21    1
    13    21    22    1
    14    22    23    1
    15    23    24    1
    16    24    25    1
    17     3     4   ar
    18     4     5   ar
    19     5    15    1
    20    15    16    1
    21    16    17    1
    22    17    18    1
    23     9    10   ar
    24    10    11   ar
    25    11     6   ar
    26     5     1   ar
    27    18    15    1
    28    25    20    1
@<TRIPOS>MOLECULE
*****
 25 28 0 0 0
SMALL
GASTEIGER

@<TRIPOS>ATOM
      1 C         139.3108  140.2694  164.6117 C.ar    1  UNL1        0.0790
      2 C         139.0632  139.1614  163.6313 C.ar    1  UNL1        0.0365
      3 C         138.3552  139.7429  162.4437 C.ar    1  UNL1        0.0962
      4 N         138.1651  141.2103  162.6900 N.ar    1  UNL1       -0.1723
      5 N         138.7558  141.5356  164.0299 N.ar    1  UNL1       -0.2531
      6 C         141.3592  139.8654  168.5981 C.ar    1  UNL1       -0.0225
      7 C         139.8712  140.0439  168.5341 C.ar    1  UNL1       -0.0042
      8 C         139.1885  140.1785  167.2053 C.ar    1  UNL1        0.0012
      9 C         139.9936  140.1347  165.9405 C.ar    1  UNL1        0.0173
     10 C         141.4816  139.9563  166.0045 C.ar    1  UNL1        0.0012
     11 C         142.1643  139.8216  167.3333 C.ar    1  UNL1       -0.0042
     12 C         141.9563  140.8425  170.9301 C.3     1  UNL1        0.0047
     13 C         142.0419  139.7308  169.9269 C.3     1  UNL1        0.0224
     14 C         142.8103  138.4844  170.2524 C.3     1  UNL1        0.0047
     15 C         138.7860  142.8896  164.6748 C.3     1  UNL1        0.1052
     16 C         139.7589  143.6282  165.5456 C.3     1  UNL1        0.0244
     17 C         138.8289  144.8044  165.5869 C.3     1  UNL1        0.0040
     18 C         137.8561  144.0658  164.7161 C.3     1  UNL1        0.0244
     19 C         137.9145  138.9893  161.2239 C.3     1  UNL1        0.1206
     20 N         138.4936  139.3290  159.8826 N.3     1  UNL1       -0.2633
     21 C         139.6490  138.5393  159.3427 C.3     1  UNL1        0.1049
     22 C         140.2281  138.8790  158.0014 C.3     1  UNL1        0.1595
     23 O         139.6519  140.0084  157.1999 O.3     1  UNL1       -0.3508
     24 C         138.4965  140.7981  157.7397 C.3     1  UNL1        0.1595
     25 C         137.9173  140.4584  159.0811 C.3     1  UNL1        0.1049
@<TRIPOS>BOND
     1    12    13    1
     2    13    14    1
     3    13     6    1
     4     6     7   ar
     5     7     8   ar
     6     8     9   ar
     7     9     1    1
     8     1     2   ar
     9     2     3   ar
    10     3    19    1
    11    19    20    1
    12    20    21    1
    13    21    22    1
    14    22    23    1
    15    23    24    1
    16    24    25    1
    17     3     4   ar
    18     4     5   ar
    19     5    15    1
    20    15    16    1
    21    16    17    1
    22    17    18    1
    23     9    10   ar
    24    10    11   ar
    25    11     6   ar
    26     5     1   ar
    27    18    15    1
    28    25    20    1
@<TRIPOS>MOLECULE
*****
 25 28 0 0 0
SMALL
GASTEIGER

@<TRIPOS>ATOM
      1 C         142.0796  138.8242  161.1636 C.ar    1  UNL1        0.0790
      2 C         141.6932  138.4154  159.7730 C.ar    1  UNL1        0.0365
      3 C         142.8446  138.7238  158.8624 C.ar    1  UNL1        0.0962
      4 N         143.9426  139.3232  159.6901 N.ar    1  UNL1       -0.1723
      5 N         143.4697  139.3853  161.1123 N.ar    1  UNL1       -0.2531
      6 C         139.5179  138.4358  164.8428 C.ar    1  UNL1       -0.0225
      7 C         139.3443  139.6125  163.9289 C.ar    1  UNL1       -0.0042
      8 C         140.1982  139.7420  162.7025 C.ar    1  UNL1        0.0012
      9 C         141.2257  138.6948  162.3900 C.ar    1  UNL1        0.0173
     10 C         141.3992  137.5181  163.3039 C.ar    1  UNL1        0.0012
     11 C         140.5454  137.3887  164.5303 C.ar    1  UNL1       -0.0042
     12 C         138.6575  139.3986  167.0973 C.3     1  UNL1        0.0047
     13 C         138.6640  138.3064  166.0692 C.3     1  UNL1        0.0224
     14 C         137.8166  137.0847  166.2676 C.3     1  UNL1        0.0047
     15 C         144.2501  139.9154  162.2785 C.3     1  UNL1        0.1052
     16 C         144.6497  139.3767  163.6203 C.3     1  UNL1        0.0244
     17 C         145.3537  140.6650  163.9278 C.3     1  UNL1        0.0040
     18 C         144.9542  141.2036  162.5861 C.3     1  UNL1        0.0244
     19 C         142.8900  138.4761  157.3837 C.3     1  UNL1        0.1206
     20 N         142.4711  137.1453  156.8329 N.3     1  UNL1       -0.2633
     21 C         143.1995  135.9003  157.2445 C.3     1  UNL1        0.1049
     22 C         142.7805  134.5695  156.6937 C.3     1  UNL1        0.1595
     23 O         141.6331  134.4837  155.7314 O.3     1  UNL1       -0.3508
     24 C         140.9047  135.7286  155.3198 C.3     1  UNL1        0.1595
     25 C         141.3237  137.0595  155.8706 C.3     1  UNL1        0.1049
@<TRIPOS>BOND
     1    12    13    1
     2    13    14    1
     3    13     6    1
     4     6     7   ar
     5     7     8   ar
     6     8     9   ar
     7     9     1    1
     8     1     2   ar
     9     2     3   ar
    10     3    19    1
    11    19    20    1
    12    20    21    1
    13    21    22    1
    14    22    23    1
    15    23    24    1
    16    24    25    1
    17     3     4   ar
    18     4     5   ar
    19     5    15    1
    20    15    16    1
    21    16    17    1
    22    17    18    1
    23     9    10   ar
    24    10    11   ar
    25    11     6   ar
    26     5     1   ar
    27    18    15    1
    28    25    20    1
@<TRIPOS>MOLECULE
*****
 25 28 0 0 0
SMALL
GASTEIGER

@<TRIPOS>ATOM
      1 C         141.3985  140.2394  164.1898 C.ar    1  UNL1        0.0790
      2 C         140.2332  139.5093  163.5905 C.ar    1  UNL1        0.0365
      3 C         140.6597  138.9706  162.2571 C.ar    1  UNL1        0.0962
      4 N         142.0886  139.3677  162.0323 N.ar    1  UNL1       -0.1723
      5 N         142.5452  140.1518  163.2267 N.ar    1  UNL1       -0.2531
      6 C         141.4461  142.3258  168.1766 C.ar    1  UNL1       -0.0225
      7 C         140.5704  142.8387  167.0720 C.ar    1  UNL1       -0.0042
      8 C         140.5545  142.1432  165.7431 C.ar    1  UNL1        0.0012
      9 C         141.4144  140.9349  165.5187 C.ar    1  UNL1        0.0173
     10 C         142.2901  140.4220  166.6232 C.ar    1  UNL1        0.0012
     11 C         142.3060  141.1174  167.9521 C.ar    1  UNL1       -0.0042
     12 C         142.7052  143.0073  170.3445 C.3     1  UNL1        0.0047
     13 C         141.4620  143.0213  169.5055 C.3     1  UNL1        0.0224
     14 C         140.2346  143.7308  169.9954 C.3     1  UNL1        0.0047
     15 C         143.9091  140.7444  163.4234 C.3     1  UNL1        0.1052
     16 C         144.5287  142.0870  163.1707 C.3     1  UNL1        0.0244
     17 C         145.8378  141.5826  163.7017 C.3     1  UNL1        0.0040
     18 C         145.2181  140.2402  163.9543 C.3     1  UNL1        0.0244
     19 C         139.8070  138.1745  161.3142 C.3     1  UNL1        0.1206
     20 N         139.3211  138.7941  160.0375 N.3     1  UNL1       -0.2633
     21 C         139.9494  138.4098  158.7308 C.3     1  UNL1        0.1049
     22 C         139.4636  139.0294  157.4540 C.3     1  UNL1        0.1595
     23 O         138.3494  140.0332  157.4841 O.3     1  UNL1       -0.3508
     24 C         137.7210  140.4175  158.7907 C.3     1  UNL1        0.1595
     25 C         138.2069  139.7979  160.0675 C.3     1  UNL1        0.1049
@<TRIPOS>BOND
     1    12    13    1
     2    13    14    1
     3    13     6    1
     4     6     7   ar
     5     7     8   ar
     6     8     9   ar
     7     9     1    1
     8     1     2   ar
     9     2     3   ar
    10     3    19    1
    11    19    20    1
    12    20    21    1
    13    21    22    1
    14    22    23    1
    15    23    24    1
    16    24    25    1
    17     3     4   ar
    18     4     5   ar
    19     5    15    1
    20    15    16    1
    21    16    17    1
    22    17    18    1
    23     9    10   ar
    24    10    11   ar
    25    11     6   ar
    26     5     1   ar
    27    18    15    1
    28    25    20    1
@<TRIPOS>MOLECULE
*****
 25 28 0 0 0
SMALL
GASTEIGER

@<TRIPOS>ATOM
      1 C         140.0344  140.6182  163.9927 C.ar    1  UNL1        0.0790
      2 C         140.2357  139.6456  162.8686 C.ar    1  UNL1        0.0365
      3 C         139.7882  140.3061  161.5984 C.ar    1  UNL1        0.0962
      4 N         139.3103  141.6870  161.9374 N.ar    1  UNL1       -0.1723
      5 N         139.4626  141.8798  163.4172 N.ar    1  UNL1       -0.2531
      6 C         140.9803  139.8806  168.3299 C.ar    1  UNL1       -0.0225
      7 C         142.0923  140.0223  167.3333 C.ar    1  UNL1       -0.0042
      8 C         141.7771  140.2682  165.8876 C.ar    1  UNL1        0.0012
      9 C         140.3497  140.3723  165.4384 C.ar    1  UNL1        0.0173
     10 C         139.2377  140.2306  166.4350 C.ar    1  UNL1        0.0012
     11 C         139.5529  139.9847  167.8807 C.ar    1  UNL1       -0.0042
     12 C         142.5461  138.8989  170.1559 C.3     1  UNL1        0.0047
     13 C         141.2956  139.6347  169.7756 C.3     1  UNL1        0.0224
     14 C         140.3603  140.1247  170.8411 C.3     1  UNL1        0.0047
     15 C         139.1055  143.1171  164.1863 C.3     1  UNL1        0.1052
     16 C         139.8561  144.0728  165.0658 C.3     1  UNL1        0.0244
     17 C         138.6008  144.8670  165.2742 C.3     1  UNL1        0.0040
     18 C         137.8503  143.9113  164.3947 C.3     1  UNL1        0.0244
     19 C         139.8139  139.6934  160.2295 C.3     1  UNL1        0.1206
     20 N         141.1197  139.5101  159.5144 N.3     1  UNL1       -0.2633
     21 C         142.2807  140.4053  159.8316 C.3     1  UNL1        0.1049
     22 C         143.5864  140.2220  159.1164 C.3     1  UNL1        0.1595
     23 O         143.7311  139.1435  158.0841 O.3     1  UNL1       -0.3508
     24 C         142.5703  138.2482  157.7668 C.3     1  UNL1        0.1595
     25 C         141.2644  138.4315  158.4820 C.3     1  UNL1        0.1049
@<TRIPOS>BOND
     1    12    13    1
     2    13    14    1
     3    13     6    1
     4     6     7   ar
     5     7     8   ar
     6     8     9   ar
     7     9     1    1
     8     1     2   ar
     9     2     3   ar
    10     3    19    1
    11    19    20    1
    12    20    21    1
    13    21    22    1
    14    22    23    1
    15    23    24    1
    16    24    25    1
    17     3     4   ar
    18     4     5   ar
    19     5    15    1
    20    15    16    1
    21    16    17    1
    22    17    18    1
    23     9    10   ar
    24    10    11   ar
    25    11     6   ar
    26     5     1   ar
    27    18    15    1
    28    25    20    1
@<TRIPOS>MOLECULE
*****
 25 28 0 0 0
SMALL
GASTEIGER

@<TRIPOS>ATOM
      1 C         140.1407  139.7233  164.7945 C.ar    1  UNL1        0.0790
      2 C         138.9283  139.5773  163.9235 C.ar    1  UNL1        0.0365
      3 C         139.3087  138.7446  162.7352 C.ar    1  UNL1        0.0962
      4 N         140.7563  138.3759  162.8719 N.ar    1  UNL1       -0.1723
      5 N         141.2705  138.9808  164.1446 N.ar    1  UNL1       -0.2531
      6 C         140.3518  141.9906  168.6759 C.ar    1  UNL1       -0.0225
      7 C         140.8165  142.6359  167.4041 C.ar    1  UNL1       -0.0042
      8 C         140.7461  141.8802  166.1103 C.ar    1  UNL1        0.0012
      9 C         140.2111  140.4790  166.0883 C.ar    1  UNL1        0.0173
     10 C         139.7464  139.8337  167.3601 C.ar    1  UNL1        0.0012
     11 C         139.8167  140.5894  168.6539 C.ar    1  UNL1       -0.0042
     12 C         140.6846  142.0145  171.2524 C.3     1  UNL1        0.0047
     13 C         140.4221  142.7463  169.9696 C.3     1  UNL1        0.0224
     14 C         140.2299  144.2339  169.9807 C.3     1  UNL1        0.0047
     15 C         142.6689  138.8637  164.6743 C.3     1  UNL1        0.1052
     16 C         143.2849  138.3294  165.9335 C.3     1  UNL1        0.0244
     17 C         144.6466  138.6980  165.4236 C.3     1  UNL1        0.0040
     18 C         144.0306  139.2322  164.1646 C.3     1  UNL1        0.0244
     19 C         138.4010  138.3498  161.6082 C.3     1  UNL1        0.1206
     20 N         138.5869  138.9549  160.2484 N.3     1  UNL1       -0.2633
     21 C         139.6189  138.3966  159.3138 C.3     1  UNL1        0.1049
     22 C         139.8048  139.0016  157.9539 C.3     1  UNL1        0.1595
     23 O         138.9588  140.1650  157.5286 O.3     1  UNL1       -0.3508
     24 C         137.9270  140.7233  158.4631 C.3     1  UNL1        0.1595
     25 C         137.7409  140.1183  159.8231 C.3     1  UNL1        0.1049
@<TRIPOS>BOND
     1    12    13    1
     2    13    14    1
     3    13     6    1
     4     6     7   ar
     5     7     8   ar
     6     8     9   ar
     7     9     1    1
     8     1     2   ar
     9     2     3   ar
    10     3    19    1
    11    19    20    1
    12    20    21    1
    13    21    22    1
    14    22    23    1
    15    23    24    1
    16    24    25    1
    17     3     4   ar
    18     4     5   ar
    19     5    15    1
    20    15    16    1
    21    16    17    1
    22    17    18    1
    23     9    10   ar
    24    10    11   ar
    25    11     6   ar
    26     5     1   ar
    27    18    15    1
    28    25    20    1
